
**** 12/13/19 16:37:54 ******* PSpice Lite (March 2016) ******* ID# 10813 ****

 * Matlab created *.cir-file *


 ****     CIRCUIT DESCRIPTION


******************************************************************************



.lib C:\Cadence\SPB_17.2\tools\pspice\library\eval.lib
VIN        1   0   AC 1V
R1 1 2 1.5198898948036383
C1 1 2 1.1685056964139169
R2 2 3 0.24163793769988043
C2 2 3 0.743803732604398
R3 3 4 0.061134398238069744
C3 3 4 0.29752149304175923
R4 4 5 0.015467002754231645
C4 4 5 0.1190085972167037
R5 5 6 0.0039131516968206066
C5 5 6 0.047603438886681476
R6 6 7 0.0009900273792956135
C6 6 7 0.019041375554672592
R7 7 8 0.00025047692696179017
C7 7 8 0.0076165502218690385
R8 8 9 6.337066252133292e-05
C8 8 9 0.003046620088747615
R9 9 10 1.603277761789723e-05
C9 9 10 0.0012186480354990463
R10 10 11 4.056292737327999e-06
C10 10 11 0.0004874592141996185
R11 11 12 1.0262420625439837e-06
C11 11 12 0.0001949836856798474
R12 12 13 1.2981962091181395e-07
C12 12 13 0.00015598694854387793
R13 13 0 1.8891567562630236e-07
.AC DEC 100 1 1000000
.PRINT AC VM(1) VP(1) IM(VIN) IP(VIN)
.END

**** 12/13/19 16:37:54 ******* PSpice Lite (March 2016) ******* ID# 10813 ****

 * Matlab created *.cir-file *


 ****     SMALL SIGNAL BIAS SOLUTION       TEMPERATURE =   27.000 DEG C


******************************************************************************



 NODE   VOLTAGE     NODE   VOLTAGE     NODE   VOLTAGE     NODE   VOLTAGE


(    1)    0.0000  (    2)    0.0000  (    3)    0.0000  (    4)    0.0000      

(    5)    0.0000  (    6)    0.0000  (    7)    0.0000  (    8)    0.0000      

(    9)    0.0000  (   10)    0.0000  (   11)    0.0000  (   12)    0.0000      

(   13)    0.0000  




    VOLTAGE SOURCE CURRENTS
    NAME         CURRENT

    VIN          0.000E+00

    TOTAL POWER DISSIPATION   0.00E+00  WATTS


**** 12/13/19 16:37:54 ******* PSpice Lite (March 2016) ******* ID# 10813 ****

 * Matlab created *.cir-file *


 ****     AC ANALYSIS                      TEMPERATURE =   27.000 DEG C


******************************************************************************



  FREQ        VM(1)       VP(1)       IM(VIN)     IP(VIN)     


   1.000E+00   1.000E+00   0.000E+00   3.036E+00  -1.273E+02
   1.023E+00   1.000E+00   0.000E+00   3.079E+00  -1.271E+02
   1.047E+00   1.000E+00   0.000E+00   3.123E+00  -1.270E+02
   1.072E+00   1.000E+00   0.000E+00   3.168E+00  -1.269E+02
   1.096E+00   1.000E+00   0.000E+00   3.213E+00  -1.268E+02
   1.122E+00   1.000E+00   0.000E+00   3.260E+00  -1.267E+02
   1.148E+00   1.000E+00   0.000E+00   3.307E+00  -1.266E+02
   1.175E+00   1.000E+00   0.000E+00   3.356E+00  -1.265E+02
   1.202E+00   1.000E+00   0.000E+00   3.405E+00  -1.264E+02
   1.230E+00   1.000E+00   0.000E+00   3.456E+00  -1.263E+02
   1.259E+00   1.000E+00   0.000E+00   3.507E+00  -1.262E+02
   1.288E+00   1.000E+00   0.000E+00   3.560E+00  -1.261E+02
   1.318E+00   1.000E+00   0.000E+00   3.613E+00  -1.260E+02
   1.349E+00   1.000E+00   0.000E+00   3.668E+00  -1.259E+02
   1.380E+00   1.000E+00   0.000E+00   3.724E+00  -1.258E+02
   1.413E+00   1.000E+00   0.000E+00   3.781E+00  -1.258E+02
   1.445E+00   1.000E+00   0.000E+00   3.838E+00  -1.257E+02
   1.479E+00   1.000E+00   0.000E+00   3.897E+00  -1.256E+02
   1.514E+00   1.000E+00   0.000E+00   3.957E+00  -1.256E+02
   1.549E+00   1.000E+00   0.000E+00   4.018E+00  -1.255E+02
   1.585E+00   1.000E+00   0.000E+00   4.081E+00  -1.255E+02
   1.622E+00   1.000E+00   0.000E+00   4.144E+00  -1.254E+02
   1.660E+00   1.000E+00   0.000E+00   4.208E+00  -1.254E+02
   1.698E+00   1.000E+00   0.000E+00   4.273E+00  -1.254E+02
   1.738E+00   1.000E+00   0.000E+00   4.340E+00  -1.254E+02
   1.778E+00   1.000E+00   0.000E+00   4.407E+00  -1.253E+02
   1.820E+00   1.000E+00   0.000E+00   4.476E+00  -1.253E+02
   1.862E+00   1.000E+00   0.000E+00   4.545E+00  -1.253E+02
   1.905E+00   1.000E+00   0.000E+00   4.615E+00  -1.253E+02
   1.950E+00   1.000E+00   0.000E+00   4.687E+00  -1.254E+02
   1.995E+00   1.000E+00   0.000E+00   4.759E+00  -1.254E+02
   2.042E+00   1.000E+00   0.000E+00   4.832E+00  -1.254E+02
   2.089E+00   1.000E+00   0.000E+00   4.907E+00  -1.254E+02
   2.138E+00   1.000E+00   0.000E+00   4.982E+00  -1.255E+02
   2.188E+00   1.000E+00   0.000E+00   5.058E+00  -1.255E+02
   2.239E+00   1.000E+00   0.000E+00   5.135E+00  -1.255E+02
   2.291E+00   1.000E+00   0.000E+00   5.212E+00  -1.256E+02
   2.344E+00   1.000E+00   0.000E+00   5.291E+00  -1.256E+02
   2.399E+00   1.000E+00   0.000E+00   5.370E+00  -1.257E+02
   2.455E+00   1.000E+00   0.000E+00   5.450E+00  -1.258E+02
   2.512E+00   1.000E+00   0.000E+00   5.531E+00  -1.258E+02
   2.570E+00   1.000E+00   0.000E+00   5.613E+00  -1.259E+02
   2.630E+00   1.000E+00   0.000E+00   5.695E+00  -1.260E+02
   2.692E+00   1.000E+00   0.000E+00   5.778E+00  -1.260E+02
   2.754E+00   1.000E+00   0.000E+00   5.861E+00  -1.261E+02
   2.818E+00   1.000E+00   0.000E+00   5.946E+00  -1.262E+02
   2.884E+00   1.000E+00   0.000E+00   6.030E+00  -1.263E+02
   2.951E+00   1.000E+00   0.000E+00   6.116E+00  -1.264E+02
   3.020E+00   1.000E+00   0.000E+00   6.202E+00  -1.264E+02
   3.090E+00   1.000E+00   0.000E+00   6.288E+00  -1.265E+02
   3.162E+00   1.000E+00   0.000E+00   6.375E+00  -1.266E+02
   3.236E+00   1.000E+00   0.000E+00   6.463E+00  -1.267E+02
   3.311E+00   1.000E+00   0.000E+00   6.551E+00  -1.268E+02
   3.388E+00   1.000E+00   0.000E+00   6.640E+00  -1.269E+02
   3.467E+00   1.000E+00   0.000E+00   6.729E+00  -1.269E+02
   3.548E+00   1.000E+00   0.000E+00   6.819E+00  -1.270E+02
   3.631E+00   1.000E+00   0.000E+00   6.909E+00  -1.271E+02
   3.715E+00   1.000E+00   0.000E+00   7.000E+00  -1.272E+02
   3.802E+00   1.000E+00   0.000E+00   7.091E+00  -1.273E+02
   3.890E+00   1.000E+00   0.000E+00   7.183E+00  -1.273E+02
   3.981E+00   1.000E+00   0.000E+00   7.276E+00  -1.274E+02
   4.074E+00   1.000E+00   0.000E+00   7.369E+00  -1.275E+02
   4.169E+00   1.000E+00   0.000E+00   7.462E+00  -1.275E+02
   4.266E+00   1.000E+00   0.000E+00   7.557E+00  -1.276E+02
   4.365E+00   1.000E+00   0.000E+00   7.652E+00  -1.276E+02
   4.467E+00   1.000E+00   0.000E+00   7.747E+00  -1.277E+02
   4.571E+00   1.000E+00   0.000E+00   7.844E+00  -1.277E+02
   4.677E+00   1.000E+00   0.000E+00   7.941E+00  -1.278E+02
   4.786E+00   1.000E+00   0.000E+00   8.039E+00  -1.278E+02
   4.898E+00   1.000E+00   0.000E+00   8.138E+00  -1.278E+02
   5.012E+00   1.000E+00   0.000E+00   8.238E+00  -1.279E+02
   5.129E+00   1.000E+00   0.000E+00   8.339E+00  -1.279E+02
   5.248E+00   1.000E+00   0.000E+00   8.441E+00  -1.279E+02
   5.370E+00   1.000E+00   0.000E+00   8.544E+00  -1.279E+02
   5.495E+00   1.000E+00   0.000E+00   8.648E+00  -1.279E+02
   5.623E+00   1.000E+00   0.000E+00   8.753E+00  -1.279E+02
   5.754E+00   1.000E+00   0.000E+00   8.860E+00  -1.279E+02
   5.888E+00   1.000E+00   0.000E+00   8.968E+00  -1.278E+02
   6.026E+00   1.000E+00   0.000E+00   9.078E+00  -1.278E+02
   6.166E+00   1.000E+00   0.000E+00   9.189E+00  -1.278E+02
   6.310E+00   1.000E+00   0.000E+00   9.302E+00  -1.278E+02
   6.457E+00   1.000E+00   0.000E+00   9.417E+00  -1.277E+02
   6.607E+00   1.000E+00   0.000E+00   9.534E+00  -1.277E+02
   6.761E+00   1.000E+00   0.000E+00   9.652E+00  -1.276E+02
   6.918E+00   1.000E+00   0.000E+00   9.773E+00  -1.276E+02
   7.079E+00   1.000E+00   0.000E+00   9.895E+00  -1.275E+02
   7.244E+00   1.000E+00   0.000E+00   1.002E+01  -1.274E+02
   7.413E+00   1.000E+00   0.000E+00   1.015E+01  -1.274E+02
   7.586E+00   1.000E+00   0.000E+00   1.028E+01  -1.273E+02
   7.762E+00   1.000E+00   0.000E+00   1.041E+01  -1.272E+02
   7.943E+00   1.000E+00   0.000E+00   1.054E+01  -1.271E+02
   8.128E+00   1.000E+00   0.000E+00   1.068E+01  -1.270E+02
   8.318E+00   1.000E+00   0.000E+00   1.082E+01  -1.270E+02
   8.511E+00   1.000E+00   0.000E+00   1.096E+01  -1.269E+02
   8.710E+00   1.000E+00   0.000E+00   1.111E+01  -1.268E+02
   8.913E+00   1.000E+00   0.000E+00   1.126E+01  -1.267E+02
   9.120E+00   1.000E+00   0.000E+00   1.141E+01  -1.266E+02
   9.333E+00   1.000E+00   0.000E+00   1.157E+01  -1.265E+02
   9.550E+00   1.000E+00   0.000E+00   1.172E+01  -1.264E+02
   9.772E+00   1.000E+00   0.000E+00   1.189E+01  -1.263E+02
   1.000E+01   1.000E+00   0.000E+00   1.205E+01  -1.262E+02
   1.023E+01   1.000E+00   0.000E+00   1.222E+01  -1.261E+02
   1.047E+01   1.000E+00   0.000E+00   1.239E+01  -1.260E+02
   1.072E+01   1.000E+00   0.000E+00   1.257E+01  -1.259E+02
   1.096E+01   1.000E+00   0.000E+00   1.275E+01  -1.258E+02
   1.122E+01   1.000E+00   0.000E+00   1.293E+01  -1.257E+02
   1.148E+01   1.000E+00   0.000E+00   1.312E+01  -1.256E+02
   1.175E+01   1.000E+00   0.000E+00   1.331E+01  -1.256E+02
   1.202E+01   1.000E+00   0.000E+00   1.351E+01  -1.255E+02
   1.230E+01   1.000E+00   0.000E+00   1.371E+01  -1.254E+02
   1.259E+01   1.000E+00   0.000E+00   1.391E+01  -1.253E+02
   1.288E+01   1.000E+00   0.000E+00   1.412E+01  -1.253E+02
   1.318E+01   1.000E+00   0.000E+00   1.433E+01  -1.252E+02
   1.349E+01   1.000E+00   0.000E+00   1.455E+01  -1.251E+02
   1.380E+01   1.000E+00   0.000E+00   1.477E+01  -1.251E+02
   1.413E+01   1.000E+00   0.000E+00   1.499E+01  -1.250E+02
   1.445E+01   1.000E+00   0.000E+00   1.522E+01  -1.250E+02
   1.479E+01   1.000E+00   0.000E+00   1.546E+01  -1.249E+02
   1.514E+01   1.000E+00   0.000E+00   1.569E+01  -1.249E+02
   1.549E+01   1.000E+00   0.000E+00   1.594E+01  -1.248E+02
   1.585E+01   1.000E+00   0.000E+00   1.618E+01  -1.248E+02
   1.622E+01   1.000E+00   0.000E+00   1.643E+01  -1.248E+02
   1.660E+01   1.000E+00   0.000E+00   1.669E+01  -1.248E+02
   1.698E+01   1.000E+00   0.000E+00   1.694E+01  -1.248E+02
   1.738E+01   1.000E+00   0.000E+00   1.721E+01  -1.248E+02
   1.778E+01   1.000E+00   0.000E+00   1.747E+01  -1.248E+02
   1.820E+01   1.000E+00   0.000E+00   1.774E+01  -1.248E+02
   1.862E+01   1.000E+00   0.000E+00   1.802E+01  -1.248E+02
   1.905E+01   1.000E+00   0.000E+00   1.830E+01  -1.248E+02
   1.950E+01   1.000E+00   0.000E+00   1.858E+01  -1.248E+02
   1.995E+01   1.000E+00   0.000E+00   1.887E+01  -1.249E+02
   2.042E+01   1.000E+00   0.000E+00   1.916E+01  -1.249E+02
   2.089E+01   1.000E+00   0.000E+00   1.945E+01  -1.249E+02
   2.138E+01   1.000E+00   0.000E+00   1.975E+01  -1.250E+02
   2.188E+01   1.000E+00   0.000E+00   2.005E+01  -1.250E+02
   2.239E+01   1.000E+00   0.000E+00   2.035E+01  -1.251E+02
   2.291E+01   1.000E+00   0.000E+00   2.066E+01  -1.251E+02
   2.344E+01   1.000E+00   0.000E+00   2.097E+01  -1.252E+02
   2.399E+01   1.000E+00   0.000E+00   2.128E+01  -1.253E+02
   2.455E+01   1.000E+00   0.000E+00   2.160E+01  -1.253E+02
   2.512E+01   1.000E+00   0.000E+00   2.192E+01  -1.254E+02
   2.570E+01   1.000E+00   0.000E+00   2.224E+01  -1.255E+02
   2.630E+01   1.000E+00   0.000E+00   2.257E+01  -1.256E+02
   2.692E+01   1.000E+00   0.000E+00   2.289E+01  -1.257E+02
   2.754E+01   1.000E+00   0.000E+00   2.323E+01  -1.257E+02
   2.818E+01   1.000E+00   0.000E+00   2.356E+01  -1.258E+02
   2.884E+01   1.000E+00   0.000E+00   2.389E+01  -1.259E+02
   2.951E+01   1.000E+00   0.000E+00   2.423E+01  -1.260E+02
   3.020E+01   1.000E+00   0.000E+00   2.457E+01  -1.261E+02
   3.090E+01   1.000E+00   0.000E+00   2.491E+01  -1.262E+02
   3.162E+01   1.000E+00   0.000E+00   2.526E+01  -1.263E+02
   3.236E+01   1.000E+00   0.000E+00   2.560E+01  -1.264E+02
   3.311E+01   1.000E+00   0.000E+00   2.595E+01  -1.265E+02
   3.388E+01   1.000E+00   0.000E+00   2.630E+01  -1.265E+02
   3.467E+01   1.000E+00   0.000E+00   2.666E+01  -1.266E+02
   3.548E+01   1.000E+00   0.000E+00   2.701E+01  -1.267E+02
   3.631E+01   1.000E+00   0.000E+00   2.737E+01  -1.268E+02
   3.715E+01   1.000E+00   0.000E+00   2.773E+01  -1.269E+02
   3.802E+01   1.000E+00   0.000E+00   2.809E+01  -1.270E+02
   3.890E+01   1.000E+00   0.000E+00   2.845E+01  -1.270E+02
   3.981E+01   1.000E+00   0.000E+00   2.882E+01  -1.271E+02
   4.074E+01   1.000E+00   0.000E+00   2.919E+01  -1.272E+02
   4.169E+01   1.000E+00   0.000E+00   2.956E+01  -1.272E+02
   4.266E+01   1.000E+00   0.000E+00   2.993E+01  -1.273E+02
   4.365E+01   1.000E+00   0.000E+00   3.031E+01  -1.274E+02
   4.467E+01   1.000E+00   0.000E+00   3.068E+01  -1.274E+02
   4.571E+01   1.000E+00   0.000E+00   3.107E+01  -1.275E+02
   4.677E+01   1.000E+00   0.000E+00   3.145E+01  -1.275E+02
   4.786E+01   1.000E+00   0.000E+00   3.184E+01  -1.275E+02
   4.898E+01   1.000E+00   0.000E+00   3.223E+01  -1.276E+02
   5.012E+01   1.000E+00   0.000E+00   3.263E+01  -1.276E+02
   5.129E+01   1.000E+00   0.000E+00   3.303E+01  -1.276E+02
   5.248E+01   1.000E+00   0.000E+00   3.343E+01  -1.276E+02
   5.370E+01   1.000E+00   0.000E+00   3.384E+01  -1.276E+02
   5.495E+01   1.000E+00   0.000E+00   3.426E+01  -1.276E+02
   5.623E+01   1.000E+00   0.000E+00   3.467E+01  -1.276E+02
   5.754E+01   1.000E+00   0.000E+00   3.510E+01  -1.276E+02
   5.888E+01   1.000E+00   0.000E+00   3.553E+01  -1.276E+02
   6.026E+01   1.000E+00   0.000E+00   3.597E+01  -1.276E+02
   6.166E+01   1.000E+00   0.000E+00   3.641E+01  -1.275E+02
   6.310E+01   1.000E+00   0.000E+00   3.686E+01  -1.275E+02
   6.457E+01   1.000E+00   0.000E+00   3.731E+01  -1.275E+02
   6.607E+01   1.000E+00   0.000E+00   3.778E+01  -1.274E+02
   6.761E+01   1.000E+00   0.000E+00   3.825E+01  -1.274E+02
   6.918E+01   1.000E+00   0.000E+00   3.873E+01  -1.273E+02
   7.079E+01   1.000E+00   0.000E+00   3.922E+01  -1.272E+02
   7.244E+01   1.000E+00   0.000E+00   3.971E+01  -1.272E+02
   7.413E+01   1.000E+00   0.000E+00   4.022E+01  -1.271E+02
   7.586E+01   1.000E+00   0.000E+00   4.074E+01  -1.270E+02
   7.762E+01   1.000E+00   0.000E+00   4.126E+01  -1.270E+02
   7.943E+01   1.000E+00   0.000E+00   4.180E+01  -1.269E+02
   8.128E+01   1.000E+00   0.000E+00   4.234E+01  -1.268E+02
   8.318E+01   1.000E+00   0.000E+00   4.290E+01  -1.267E+02
   8.511E+01   1.000E+00   0.000E+00   4.347E+01  -1.266E+02
   8.710E+01   1.000E+00   0.000E+00   4.405E+01  -1.265E+02
   8.913E+01   1.000E+00   0.000E+00   4.465E+01  -1.264E+02
   9.120E+01   1.000E+00   0.000E+00   4.525E+01  -1.264E+02
   9.333E+01   1.000E+00   0.000E+00   4.587E+01  -1.263E+02
   9.550E+01   1.000E+00   0.000E+00   4.651E+01  -1.262E+02
   9.772E+01   1.000E+00   0.000E+00   4.715E+01  -1.261E+02
   1.000E+02   1.000E+00   0.000E+00   4.781E+01  -1.260E+02
   1.023E+02   1.000E+00   0.000E+00   4.848E+01  -1.259E+02
   1.047E+02   1.000E+00   0.000E+00   4.917E+01  -1.258E+02
   1.072E+02   1.000E+00   0.000E+00   4.988E+01  -1.257E+02
   1.096E+02   1.000E+00   0.000E+00   5.059E+01  -1.256E+02
   1.122E+02   1.000E+00   0.000E+00   5.133E+01  -1.255E+02
   1.148E+02   1.000E+00   0.000E+00   5.208E+01  -1.254E+02
   1.175E+02   1.000E+00   0.000E+00   5.284E+01  -1.254E+02
   1.202E+02   1.000E+00   0.000E+00   5.362E+01  -1.253E+02
   1.230E+02   1.000E+00   0.000E+00   5.442E+01  -1.252E+02
   1.259E+02   1.000E+00   0.000E+00   5.523E+01  -1.251E+02
   1.288E+02   1.000E+00   0.000E+00   5.606E+01  -1.251E+02
   1.318E+02   1.000E+00   0.000E+00   5.690E+01  -1.250E+02
   1.349E+02   1.000E+00   0.000E+00   5.777E+01  -1.249E+02
   1.380E+02   1.000E+00   0.000E+00   5.865E+01  -1.249E+02
   1.413E+02   1.000E+00   0.000E+00   5.954E+01  -1.248E+02
   1.445E+02   1.000E+00   0.000E+00   6.045E+01  -1.248E+02
   1.479E+02   1.000E+00   0.000E+00   6.138E+01  -1.248E+02
   1.514E+02   1.000E+00   0.000E+00   6.233E+01  -1.247E+02
   1.549E+02   1.000E+00   0.000E+00   6.329E+01  -1.247E+02
   1.585E+02   1.000E+00   0.000E+00   6.427E+01  -1.247E+02
   1.622E+02   1.000E+00   0.000E+00   6.527E+01  -1.246E+02
   1.660E+02   1.000E+00   0.000E+00   6.628E+01  -1.246E+02
   1.698E+02   1.000E+00   0.000E+00   6.731E+01  -1.246E+02
   1.738E+02   1.000E+00   0.000E+00   6.835E+01  -1.246E+02
   1.778E+02   1.000E+00   0.000E+00   6.941E+01  -1.246E+02
   1.820E+02   1.000E+00   0.000E+00   7.049E+01  -1.246E+02
   1.862E+02   1.000E+00   0.000E+00   7.158E+01  -1.247E+02
   1.905E+02   1.000E+00   0.000E+00   7.269E+01  -1.247E+02
   1.950E+02   1.000E+00   0.000E+00   7.381E+01  -1.247E+02
   1.995E+02   1.000E+00   0.000E+00   7.495E+01  -1.247E+02
   2.042E+02   1.000E+00   0.000E+00   7.610E+01  -1.248E+02
   2.089E+02   1.000E+00   0.000E+00   7.727E+01  -1.248E+02
   2.138E+02   1.000E+00   0.000E+00   7.845E+01  -1.249E+02
   2.188E+02   1.000E+00   0.000E+00   7.964E+01  -1.249E+02
   2.239E+02   1.000E+00   0.000E+00   8.085E+01  -1.250E+02
   2.291E+02   1.000E+00   0.000E+00   8.207E+01  -1.250E+02
   2.344E+02   1.000E+00   0.000E+00   8.330E+01  -1.251E+02
   2.399E+02   1.000E+00   0.000E+00   8.454E+01  -1.252E+02
   2.455E+02   1.000E+00   0.000E+00   8.580E+01  -1.253E+02
   2.512E+02   1.000E+00   0.000E+00   8.707E+01  -1.253E+02
   2.570E+02   1.000E+00   0.000E+00   8.834E+01  -1.254E+02
   2.630E+02   1.000E+00   0.000E+00   8.963E+01  -1.255E+02
   2.692E+02   1.000E+00   0.000E+00   9.093E+01  -1.256E+02
   2.754E+02   1.000E+00   0.000E+00   9.224E+01  -1.257E+02
   2.818E+02   1.000E+00   0.000E+00   9.356E+01  -1.258E+02
   2.884E+02   1.000E+00   0.000E+00   9.489E+01  -1.258E+02
   2.951E+02   1.000E+00   0.000E+00   9.623E+01  -1.259E+02
   3.020E+02   1.000E+00   0.000E+00   9.758E+01  -1.260E+02
   3.090E+02   1.000E+00   0.000E+00   9.893E+01  -1.261E+02
   3.162E+02   1.000E+00   0.000E+00   1.003E+02  -1.262E+02
   3.236E+02   1.000E+00   0.000E+00   1.017E+02  -1.263E+02
   3.311E+02   1.000E+00   0.000E+00   1.031E+02  -1.264E+02
   3.388E+02   1.000E+00   0.000E+00   1.044E+02  -1.265E+02
   3.467E+02   1.000E+00   0.000E+00   1.058E+02  -1.266E+02
   3.548E+02   1.000E+00   0.000E+00   1.072E+02  -1.267E+02
   3.631E+02   1.000E+00   0.000E+00   1.087E+02  -1.267E+02
   3.715E+02   1.000E+00   0.000E+00   1.101E+02  -1.268E+02
   3.802E+02   1.000E+00   0.000E+00   1.115E+02  -1.269E+02
   3.890E+02   1.000E+00   0.000E+00   1.130E+02  -1.270E+02
   3.981E+02   1.000E+00   0.000E+00   1.144E+02  -1.270E+02
   4.074E+02   1.000E+00   0.000E+00   1.159E+02  -1.271E+02
   4.169E+02   1.000E+00   0.000E+00   1.173E+02  -1.272E+02
   4.266E+02   1.000E+00   0.000E+00   1.188E+02  -1.272E+02
   4.365E+02   1.000E+00   0.000E+00   1.203E+02  -1.273E+02
   4.467E+02   1.000E+00   0.000E+00   1.218E+02  -1.273E+02
   4.571E+02   1.000E+00   0.000E+00   1.233E+02  -1.274E+02
   4.677E+02   1.000E+00   0.000E+00   1.249E+02  -1.274E+02
   4.786E+02   1.000E+00   0.000E+00   1.264E+02  -1.275E+02
   4.898E+02   1.000E+00   0.000E+00   1.280E+02  -1.275E+02
   5.012E+02   1.000E+00   0.000E+00   1.295E+02  -1.275E+02
   5.129E+02   1.000E+00   0.000E+00   1.311E+02  -1.275E+02
   5.248E+02   1.000E+00   0.000E+00   1.327E+02  -1.275E+02
   5.370E+02   1.000E+00   0.000E+00   1.344E+02  -1.275E+02
   5.495E+02   1.000E+00   0.000E+00   1.360E+02  -1.275E+02
   5.623E+02   1.000E+00   0.000E+00   1.377E+02  -1.275E+02
   5.754E+02   1.000E+00   0.000E+00   1.394E+02  -1.275E+02
   5.888E+02   1.000E+00   0.000E+00   1.411E+02  -1.275E+02
   6.026E+02   1.000E+00   0.000E+00   1.428E+02  -1.275E+02
   6.166E+02   1.000E+00   0.000E+00   1.446E+02  -1.274E+02
   6.310E+02   1.000E+00   0.000E+00   1.464E+02  -1.274E+02
   6.457E+02   1.000E+00   0.000E+00   1.482E+02  -1.274E+02
   6.607E+02   1.000E+00   0.000E+00   1.500E+02  -1.273E+02
   6.761E+02   1.000E+00   0.000E+00   1.519E+02  -1.273E+02
   6.918E+02   1.000E+00   0.000E+00   1.538E+02  -1.272E+02
   7.079E+02   1.000E+00   0.000E+00   1.558E+02  -1.271E+02
   7.244E+02   1.000E+00   0.000E+00   1.577E+02  -1.271E+02
   7.413E+02   1.000E+00   0.000E+00   1.598E+02  -1.270E+02
   7.586E+02   1.000E+00   0.000E+00   1.618E+02  -1.269E+02
   7.762E+02   1.000E+00   0.000E+00   1.639E+02  -1.268E+02
   7.943E+02   1.000E+00   0.000E+00   1.661E+02  -1.268E+02
   8.128E+02   1.000E+00   0.000E+00   1.682E+02  -1.267E+02
   8.318E+02   1.000E+00   0.000E+00   1.705E+02  -1.266E+02
   8.511E+02   1.000E+00   0.000E+00   1.727E+02  -1.265E+02
   8.710E+02   1.000E+00   0.000E+00   1.751E+02  -1.264E+02
   8.913E+02   1.000E+00   0.000E+00   1.774E+02  -1.263E+02
   9.120E+02   1.000E+00   0.000E+00   1.799E+02  -1.262E+02
   9.333E+02   1.000E+00   0.000E+00   1.823E+02  -1.261E+02
   9.550E+02   1.000E+00   0.000E+00   1.849E+02  -1.261E+02
   9.772E+02   1.000E+00   0.000E+00   1.874E+02  -1.260E+02
   1.000E+03   1.000E+00   0.000E+00   1.901E+02  -1.259E+02
   1.023E+03   1.000E+00   0.000E+00   1.928E+02  -1.258E+02
   1.047E+03   1.000E+00   0.000E+00   1.955E+02  -1.257E+02
   1.072E+03   1.000E+00   0.000E+00   1.983E+02  -1.256E+02
   1.096E+03   1.000E+00   0.000E+00   2.012E+02  -1.255E+02
   1.122E+03   1.000E+00   0.000E+00   2.041E+02  -1.254E+02
   1.148E+03   1.000E+00   0.000E+00   2.071E+02  -1.253E+02
   1.175E+03   1.000E+00   0.000E+00   2.102E+02  -1.253E+02
   1.202E+03   1.000E+00   0.000E+00   2.133E+02  -1.252E+02
   1.230E+03   1.000E+00   0.000E+00   2.164E+02  -1.251E+02
   1.259E+03   1.000E+00   0.000E+00   2.197E+02  -1.250E+02
   1.288E+03   1.000E+00   0.000E+00   2.230E+02  -1.250E+02
   1.318E+03   1.000E+00   0.000E+00   2.264E+02  -1.249E+02
   1.349E+03   1.000E+00   0.000E+00   2.298E+02  -1.249E+02
   1.380E+03   1.000E+00   0.000E+00   2.333E+02  -1.248E+02
   1.413E+03   1.000E+00   0.000E+00   2.369E+02  -1.248E+02
   1.445E+03   1.000E+00   0.000E+00   2.405E+02  -1.247E+02
   1.479E+03   1.000E+00   0.000E+00   2.442E+02  -1.247E+02
   1.514E+03   1.000E+00   0.000E+00   2.480E+02  -1.246E+02
   1.549E+03   1.000E+00   0.000E+00   2.518E+02  -1.246E+02
   1.585E+03   1.000E+00   0.000E+00   2.557E+02  -1.246E+02
   1.622E+03   1.000E+00   0.000E+00   2.597E+02  -1.246E+02
   1.660E+03   1.000E+00   0.000E+00   2.637E+02  -1.246E+02
   1.698E+03   1.000E+00   0.000E+00   2.678E+02  -1.246E+02
   1.738E+03   1.000E+00   0.000E+00   2.720E+02  -1.246E+02
   1.778E+03   1.000E+00   0.000E+00   2.762E+02  -1.246E+02
   1.820E+03   1.000E+00   0.000E+00   2.805E+02  -1.246E+02
   1.862E+03   1.000E+00   0.000E+00   2.848E+02  -1.246E+02
   1.905E+03   1.000E+00   0.000E+00   2.892E+02  -1.246E+02
   1.950E+03   1.000E+00   0.000E+00   2.937E+02  -1.247E+02
   1.995E+03   1.000E+00   0.000E+00   2.982E+02  -1.247E+02
   2.042E+03   1.000E+00   0.000E+00   3.028E+02  -1.248E+02
   2.089E+03   1.000E+00   0.000E+00   3.074E+02  -1.248E+02
   2.138E+03   1.000E+00   0.000E+00   3.121E+02  -1.249E+02
   2.188E+03   1.000E+00   0.000E+00   3.169E+02  -1.249E+02
   2.239E+03   1.000E+00   0.000E+00   3.217E+02  -1.250E+02
   2.291E+03   1.000E+00   0.000E+00   3.265E+02  -1.250E+02
   2.344E+03   1.000E+00   0.000E+00   3.314E+02  -1.251E+02
   2.399E+03   1.000E+00   0.000E+00   3.364E+02  -1.252E+02
   2.455E+03   1.000E+00   0.000E+00   3.413E+02  -1.252E+02
   2.512E+03   1.000E+00   0.000E+00   3.464E+02  -1.253E+02
   2.570E+03   1.000E+00   0.000E+00   3.514E+02  -1.254E+02
   2.630E+03   1.000E+00   0.000E+00   3.566E+02  -1.255E+02
   2.692E+03   1.000E+00   0.000E+00   3.617E+02  -1.256E+02
   2.754E+03   1.000E+00   0.000E+00   3.669E+02  -1.257E+02
   2.818E+03   1.000E+00   0.000E+00   3.721E+02  -1.258E+02
   2.884E+03   1.000E+00   0.000E+00   3.774E+02  -1.258E+02
   2.951E+03   1.000E+00   0.000E+00   3.827E+02  -1.259E+02
   3.020E+03   1.000E+00   0.000E+00   3.881E+02  -1.260E+02
   3.090E+03   1.000E+00   0.000E+00   3.934E+02  -1.261E+02
   3.162E+03   1.000E+00   0.000E+00   3.989E+02  -1.262E+02
   3.236E+03   1.000E+00   0.000E+00   4.043E+02  -1.263E+02
   3.311E+03   1.000E+00   0.000E+00   4.098E+02  -1.264E+02
   3.388E+03   1.000E+00   0.000E+00   4.153E+02  -1.265E+02
   3.467E+03   1.000E+00   0.000E+00   4.208E+02  -1.266E+02
   3.548E+03   1.000E+00   0.000E+00   4.264E+02  -1.267E+02
   3.631E+03   1.000E+00   0.000E+00   4.320E+02  -1.267E+02
   3.715E+03   1.000E+00   0.000E+00   4.376E+02  -1.268E+02
   3.802E+03   1.000E+00   0.000E+00   4.433E+02  -1.269E+02
   3.890E+03   1.000E+00   0.000E+00   4.490E+02  -1.270E+02
   3.981E+03   1.000E+00   0.000E+00   4.548E+02  -1.270E+02
   4.074E+03   1.000E+00   0.000E+00   4.606E+02  -1.271E+02
   4.169E+03   1.000E+00   0.000E+00   4.664E+02  -1.272E+02
   4.266E+03   1.000E+00   0.000E+00   4.723E+02  -1.272E+02
   4.365E+03   1.000E+00   0.000E+00   4.782E+02  -1.273E+02
   4.467E+03   1.000E+00   0.000E+00   4.842E+02  -1.273E+02
   4.571E+03   1.000E+00   0.000E+00   4.902E+02  -1.274E+02
   4.677E+03   1.000E+00   0.000E+00   4.963E+02  -1.274E+02
   4.786E+03   1.000E+00   0.000E+00   5.024E+02  -1.274E+02
   4.898E+03   1.000E+00   0.000E+00   5.086E+02  -1.275E+02
   5.012E+03   1.000E+00   0.000E+00   5.148E+02  -1.275E+02
   5.129E+03   1.000E+00   0.000E+00   5.211E+02  -1.275E+02
   5.248E+03   1.000E+00   0.000E+00   5.275E+02  -1.275E+02
   5.370E+03   1.000E+00   0.000E+00   5.340E+02  -1.275E+02
   5.495E+03   1.000E+00   0.000E+00   5.405E+02  -1.275E+02
   5.623E+03   1.000E+00   0.000E+00   5.472E+02  -1.275E+02
   5.754E+03   1.000E+00   0.000E+00   5.539E+02  -1.275E+02
   5.888E+03   1.000E+00   0.000E+00   5.607E+02  -1.274E+02
   6.026E+03   1.000E+00   0.000E+00   5.676E+02  -1.274E+02
   6.166E+03   1.000E+00   0.000E+00   5.746E+02  -1.274E+02
   6.310E+03   1.000E+00   0.000E+00   5.818E+02  -1.273E+02
   6.457E+03   1.000E+00   0.000E+00   5.890E+02  -1.273E+02
   6.607E+03   1.000E+00   0.000E+00   5.964E+02  -1.272E+02
   6.761E+03   1.000E+00   0.000E+00   6.039E+02  -1.272E+02
   6.918E+03   1.000E+00   0.000E+00   6.115E+02  -1.271E+02
   7.079E+03   1.000E+00   0.000E+00   6.193E+02  -1.271E+02
   7.244E+03   1.000E+00   0.000E+00   6.272E+02  -1.270E+02
   7.413E+03   1.000E+00   0.000E+00   6.352E+02  -1.269E+02
   7.586E+03   1.000E+00   0.000E+00   6.435E+02  -1.269E+02
   7.762E+03   1.000E+00   0.000E+00   6.518E+02  -1.268E+02
   7.943E+03   1.000E+00   0.000E+00   6.604E+02  -1.267E+02
   8.128E+03   1.000E+00   0.000E+00   6.691E+02  -1.266E+02
   8.318E+03   1.000E+00   0.000E+00   6.780E+02  -1.265E+02
   8.511E+03   1.000E+00   0.000E+00   6.871E+02  -1.264E+02
   8.710E+03   1.000E+00   0.000E+00   6.964E+02  -1.263E+02
   8.913E+03   1.000E+00   0.000E+00   7.058E+02  -1.263E+02
   9.120E+03   1.000E+00   0.000E+00   7.155E+02  -1.262E+02
   9.333E+03   1.000E+00   0.000E+00   7.254E+02  -1.261E+02
   9.550E+03   1.000E+00   0.000E+00   7.355E+02  -1.260E+02
   9.772E+03   1.000E+00   0.000E+00   7.458E+02  -1.259E+02
   1.000E+04   1.000E+00   0.000E+00   7.563E+02  -1.258E+02
   1.023E+04   1.000E+00   0.000E+00   7.670E+02  -1.257E+02
   1.047E+04   1.000E+00   0.000E+00   7.780E+02  -1.256E+02
   1.072E+04   1.000E+00   0.000E+00   7.892E+02  -1.255E+02
   1.096E+04   1.000E+00   0.000E+00   8.007E+02  -1.254E+02
   1.122E+04   1.000E+00   0.000E+00   8.124E+02  -1.254E+02
   1.148E+04   1.000E+00   0.000E+00   8.243E+02  -1.253E+02
   1.175E+04   1.000E+00   0.000E+00   8.365E+02  -1.252E+02
   1.202E+04   1.000E+00   0.000E+00   8.490E+02  -1.251E+02
   1.230E+04   1.000E+00   0.000E+00   8.617E+02  -1.250E+02
   1.259E+04   1.000E+00   0.000E+00   8.746E+02  -1.250E+02
   1.288E+04   1.000E+00   0.000E+00   8.878E+02  -1.249E+02
   1.318E+04   1.000E+00   0.000E+00   9.013E+02  -1.249E+02
   1.349E+04   1.000E+00   0.000E+00   9.150E+02  -1.248E+02
   1.380E+04   1.000E+00   0.000E+00   9.290E+02  -1.248E+02
   1.413E+04   1.000E+00   0.000E+00   9.432E+02  -1.247E+02
   1.445E+04   1.000E+00   0.000E+00   9.577E+02  -1.247E+02
   1.479E+04   1.000E+00   0.000E+00   9.725E+02  -1.246E+02
   1.514E+04   1.000E+00   0.000E+00   9.875E+02  -1.246E+02
   1.549E+04   1.000E+00   0.000E+00   1.003E+03  -1.246E+02
   1.585E+04   1.000E+00   0.000E+00   1.018E+03  -1.246E+02
   1.622E+04   1.000E+00   0.000E+00   1.034E+03  -1.246E+02
   1.660E+04   1.000E+00   0.000E+00   1.050E+03  -1.246E+02
   1.698E+04   1.000E+00   0.000E+00   1.067E+03  -1.246E+02
   1.738E+04   1.000E+00   0.000E+00   1.083E+03  -1.246E+02
   1.778E+04   1.000E+00   0.000E+00   1.100E+03  -1.246E+02
   1.820E+04   1.000E+00   0.000E+00   1.117E+03  -1.246E+02
   1.862E+04   1.000E+00   0.000E+00   1.134E+03  -1.246E+02
   1.905E+04   1.000E+00   0.000E+00   1.152E+03  -1.246E+02
   1.950E+04   1.000E+00   0.000E+00   1.170E+03  -1.247E+02
   1.995E+04   1.000E+00   0.000E+00   1.188E+03  -1.247E+02
   2.042E+04   1.000E+00   0.000E+00   1.206E+03  -1.248E+02
   2.089E+04   1.000E+00   0.000E+00   1.224E+03  -1.248E+02
   2.138E+04   1.000E+00   0.000E+00   1.243E+03  -1.249E+02
   2.188E+04   1.000E+00   0.000E+00   1.262E+03  -1.249E+02
   2.239E+04   1.000E+00   0.000E+00   1.281E+03  -1.250E+02
   2.291E+04   1.000E+00   0.000E+00   1.300E+03  -1.250E+02
   2.344E+04   1.000E+00   0.000E+00   1.319E+03  -1.251E+02
   2.399E+04   1.000E+00   0.000E+00   1.339E+03  -1.252E+02
   2.455E+04   1.000E+00   0.000E+00   1.359E+03  -1.253E+02
   2.512E+04   1.000E+00   0.000E+00   1.379E+03  -1.254E+02
   2.570E+04   1.000E+00   0.000E+00   1.399E+03  -1.254E+02
   2.630E+04   1.000E+00   0.000E+00   1.419E+03  -1.255E+02
   2.692E+04   1.000E+00   0.000E+00   1.440E+03  -1.256E+02
   2.754E+04   1.000E+00   0.000E+00   1.460E+03  -1.257E+02
   2.818E+04   1.000E+00   0.000E+00   1.481E+03  -1.258E+02
   2.884E+04   1.000E+00   0.000E+00   1.502E+03  -1.259E+02
   2.951E+04   1.000E+00   0.000E+00   1.523E+03  -1.260E+02
   3.020E+04   1.000E+00   0.000E+00   1.544E+03  -1.261E+02
   3.090E+04   1.000E+00   0.000E+00   1.566E+03  -1.262E+02
   3.162E+04   1.000E+00   0.000E+00   1.587E+03  -1.262E+02
   3.236E+04   1.000E+00   0.000E+00   1.609E+03  -1.263E+02
   3.311E+04   1.000E+00   0.000E+00   1.630E+03  -1.264E+02
   3.388E+04   1.000E+00   0.000E+00   1.652E+03  -1.265E+02
   3.467E+04   1.000E+00   0.000E+00   1.674E+03  -1.266E+02
   3.548E+04   1.000E+00   0.000E+00   1.696E+03  -1.267E+02
   3.631E+04   1.000E+00   0.000E+00   1.718E+03  -1.268E+02
   3.715E+04   1.000E+00   0.000E+00   1.741E+03  -1.268E+02
   3.802E+04   1.000E+00   0.000E+00   1.763E+03  -1.269E+02
   3.890E+04   1.000E+00   0.000E+00   1.786E+03  -1.270E+02
   3.981E+04   1.000E+00   0.000E+00   1.809E+03  -1.271E+02
   4.074E+04   1.000E+00   0.000E+00   1.832E+03  -1.271E+02
   4.169E+04   1.000E+00   0.000E+00   1.855E+03  -1.272E+02
   4.266E+04   1.000E+00   0.000E+00   1.878E+03  -1.272E+02
   4.365E+04   1.000E+00   0.000E+00   1.902E+03  -1.273E+02
   4.467E+04   1.000E+00   0.000E+00   1.925E+03  -1.273E+02
   4.571E+04   1.000E+00   0.000E+00   1.949E+03  -1.274E+02
   4.677E+04   1.000E+00   0.000E+00   1.973E+03  -1.274E+02
   4.786E+04   1.000E+00   0.000E+00   1.998E+03  -1.274E+02
   4.898E+04   1.000E+00   0.000E+00   2.022E+03  -1.274E+02
   5.012E+04   1.000E+00   0.000E+00   2.047E+03  -1.275E+02
   5.129E+04   1.000E+00   0.000E+00   2.072E+03  -1.275E+02
   5.248E+04   1.000E+00   0.000E+00   2.098E+03  -1.275E+02
   5.370E+04   1.000E+00   0.000E+00   2.123E+03  -1.275E+02
   5.495E+04   1.000E+00   0.000E+00   2.149E+03  -1.275E+02
   5.623E+04   1.000E+00   0.000E+00   2.176E+03  -1.275E+02
   5.754E+04   1.000E+00   0.000E+00   2.203E+03  -1.274E+02
   5.888E+04   1.000E+00   0.000E+00   2.230E+03  -1.274E+02
   6.026E+04   1.000E+00   0.000E+00   2.257E+03  -1.274E+02
   6.166E+04   1.000E+00   0.000E+00   2.285E+03  -1.273E+02
   6.310E+04   1.000E+00   0.000E+00   2.314E+03  -1.273E+02
   6.457E+04   1.000E+00   0.000E+00   2.343E+03  -1.273E+02
   6.607E+04   1.000E+00   0.000E+00   2.372E+03  -1.272E+02
   6.761E+04   1.000E+00   0.000E+00   2.402E+03  -1.271E+02
   6.918E+04   1.000E+00   0.000E+00   2.432E+03  -1.271E+02
   7.079E+04   1.000E+00   0.000E+00   2.463E+03  -1.270E+02
   7.244E+04   1.000E+00   0.000E+00   2.495E+03  -1.270E+02
   7.413E+04   1.000E+00   0.000E+00   2.527E+03  -1.269E+02
   7.586E+04   1.000E+00   0.000E+00   2.560E+03  -1.268E+02
   7.762E+04   1.000E+00   0.000E+00   2.593E+03  -1.267E+02
   7.943E+04   1.000E+00   0.000E+00   2.627E+03  -1.266E+02
   8.128E+04   1.000E+00   0.000E+00   2.662E+03  -1.266E+02
   8.318E+04   1.000E+00   0.000E+00   2.698E+03  -1.265E+02
   8.511E+04   1.000E+00   0.000E+00   2.734E+03  -1.264E+02
   8.710E+04   1.000E+00   0.000E+00   2.771E+03  -1.263E+02
   8.913E+04   1.000E+00   0.000E+00   2.809E+03  -1.262E+02
   9.120E+04   1.000E+00   0.000E+00   2.848E+03  -1.261E+02
   9.333E+04   1.000E+00   0.000E+00   2.887E+03  -1.260E+02
   9.550E+04   1.000E+00   0.000E+00   2.927E+03  -1.259E+02
   9.772E+04   1.000E+00   0.000E+00   2.969E+03  -1.258E+02
   1.000E+05   1.000E+00   0.000E+00   3.011E+03  -1.257E+02
   1.023E+05   1.000E+00   0.000E+00   3.054E+03  -1.256E+02
   1.047E+05   1.000E+00   0.000E+00   3.097E+03  -1.256E+02
   1.072E+05   1.000E+00   0.000E+00   3.142E+03  -1.255E+02
   1.096E+05   1.000E+00   0.000E+00   3.188E+03  -1.254E+02
   1.122E+05   1.000E+00   0.000E+00   3.235E+03  -1.253E+02
   1.148E+05   1.000E+00   0.000E+00   3.282E+03  -1.252E+02
   1.175E+05   1.000E+00   0.000E+00   3.331E+03  -1.251E+02
   1.202E+05   1.000E+00   0.000E+00   3.381E+03  -1.251E+02
   1.230E+05   1.000E+00   0.000E+00   3.432E+03  -1.250E+02
   1.259E+05   1.000E+00   0.000E+00   3.483E+03  -1.249E+02
   1.288E+05   1.000E+00   0.000E+00   3.536E+03  -1.249E+02
   1.318E+05   1.000E+00   0.000E+00   3.590E+03  -1.248E+02
   1.349E+05   1.000E+00   0.000E+00   3.645E+03  -1.248E+02
   1.380E+05   1.000E+00   0.000E+00   3.700E+03  -1.247E+02
   1.413E+05   1.000E+00   0.000E+00   3.757E+03  -1.247E+02
   1.445E+05   1.000E+00   0.000E+00   3.815E+03  -1.246E+02
   1.479E+05   1.000E+00   0.000E+00   3.874E+03  -1.246E+02
   1.514E+05   1.000E+00   0.000E+00   3.934E+03  -1.246E+02
   1.549E+05   1.000E+00   0.000E+00   3.995E+03  -1.246E+02
   1.585E+05   1.000E+00   0.000E+00   4.057E+03  -1.246E+02
   1.622E+05   1.000E+00   0.000E+00   4.120E+03  -1.245E+02
   1.660E+05   1.000E+00   0.000E+00   4.184E+03  -1.245E+02
   1.698E+05   1.000E+00   0.000E+00   4.249E+03  -1.245E+02
   1.738E+05   1.000E+00   0.000E+00   4.315E+03  -1.246E+02
   1.778E+05   1.000E+00   0.000E+00   4.382E+03  -1.246E+02
   1.820E+05   1.000E+00   0.000E+00   4.450E+03  -1.246E+02
   1.862E+05   1.000E+00   0.000E+00   4.519E+03  -1.246E+02
   1.905E+05   1.000E+00   0.000E+00   4.588E+03  -1.246E+02
   1.950E+05   1.000E+00   0.000E+00   4.659E+03  -1.247E+02
   1.995E+05   1.000E+00   0.000E+00   4.731E+03  -1.247E+02
   2.042E+05   1.000E+00   0.000E+00   4.803E+03  -1.248E+02
   2.089E+05   1.000E+00   0.000E+00   4.876E+03  -1.248E+02
   2.138E+05   1.000E+00   0.000E+00   4.950E+03  -1.249E+02
   2.188E+05   1.000E+00   0.000E+00   5.025E+03  -1.249E+02
   2.239E+05   1.000E+00   0.000E+00   5.101E+03  -1.250E+02
   2.291E+05   1.000E+00   0.000E+00   5.178E+03  -1.251E+02
   2.344E+05   1.000E+00   0.000E+00   5.255E+03  -1.251E+02
   2.399E+05   1.000E+00   0.000E+00   5.333E+03  -1.252E+02
   2.455E+05   1.000E+00   0.000E+00   5.411E+03  -1.253E+02
   2.512E+05   1.000E+00   0.000E+00   5.491E+03  -1.254E+02
   2.570E+05   1.000E+00   0.000E+00   5.571E+03  -1.255E+02
   2.630E+05   1.000E+00   0.000E+00   5.651E+03  -1.256E+02
   2.692E+05   1.000E+00   0.000E+00   5.732E+03  -1.256E+02
   2.754E+05   1.000E+00   0.000E+00   5.814E+03  -1.257E+02
   2.818E+05   1.000E+00   0.000E+00   5.896E+03  -1.258E+02
   2.884E+05   1.000E+00   0.000E+00   5.979E+03  -1.259E+02
   2.951E+05   1.000E+00   0.000E+00   6.063E+03  -1.260E+02
   3.020E+05   1.000E+00   0.000E+00   6.147E+03  -1.261E+02
   3.090E+05   1.000E+00   0.000E+00   6.231E+03  -1.262E+02
   3.162E+05   1.000E+00   0.000E+00   6.316E+03  -1.263E+02
   3.236E+05   1.000E+00   0.000E+00   6.402E+03  -1.264E+02
   3.311E+05   1.000E+00   0.000E+00   6.488E+03  -1.265E+02
   3.388E+05   1.000E+00   0.000E+00   6.575E+03  -1.265E+02
   3.467E+05   1.000E+00   0.000E+00   6.662E+03  -1.266E+02
   3.548E+05   1.000E+00   0.000E+00   6.750E+03  -1.267E+02
   3.631E+05   1.000E+00   0.000E+00   6.838E+03  -1.268E+02
   3.715E+05   1.000E+00   0.000E+00   6.926E+03  -1.269E+02
   3.802E+05   1.000E+00   0.000E+00   7.016E+03  -1.269E+02
   3.890E+05   1.000E+00   0.000E+00   7.106E+03  -1.270E+02
   3.981E+05   1.000E+00   0.000E+00   7.196E+03  -1.271E+02
   4.074E+05   1.000E+00   0.000E+00   7.287E+03  -1.271E+02
   4.169E+05   1.000E+00   0.000E+00   7.379E+03  -1.272E+02
   4.266E+05   1.000E+00   0.000E+00   7.472E+03  -1.272E+02
   4.365E+05   1.000E+00   0.000E+00   7.565E+03  -1.273E+02
   4.467E+05   1.000E+00   0.000E+00   7.659E+03  -1.273E+02
   4.571E+05   1.000E+00   0.000E+00   7.754E+03  -1.274E+02
   4.677E+05   1.000E+00   0.000E+00   7.850E+03  -1.274E+02
   4.786E+05   1.000E+00   0.000E+00   7.946E+03  -1.274E+02
   4.898E+05   1.000E+00   0.000E+00   8.044E+03  -1.274E+02
   5.012E+05   1.000E+00   0.000E+00   8.143E+03  -1.275E+02
   5.129E+05   1.000E+00   0.000E+00   8.243E+03  -1.275E+02
   5.248E+05   1.000E+00   0.000E+00   8.344E+03  -1.275E+02
   5.370E+05   1.000E+00   0.000E+00   8.446E+03  -1.275E+02
   5.495E+05   1.000E+00   0.000E+00   8.550E+03  -1.275E+02
   5.623E+05   1.000E+00   0.000E+00   8.655E+03  -1.274E+02
   5.754E+05   1.000E+00   0.000E+00   8.761E+03  -1.274E+02
   5.888E+05   1.000E+00   0.000E+00   8.869E+03  -1.274E+02
   6.026E+05   1.000E+00   0.000E+00   8.979E+03  -1.273E+02
   6.166E+05   1.000E+00   0.000E+00   9.091E+03  -1.273E+02
   6.310E+05   1.000E+00   0.000E+00   9.204E+03  -1.273E+02
   6.457E+05   1.000E+00   0.000E+00   9.319E+03  -1.272E+02
   6.607E+05   1.000E+00   0.000E+00   9.436E+03  -1.272E+02
   6.761E+05   1.000E+00   0.000E+00   9.556E+03  -1.271E+02
   6.918E+05   1.000E+00   0.000E+00   9.677E+03  -1.270E+02
   7.079E+05   1.000E+00   0.000E+00   9.801E+03  -1.270E+02
   7.244E+05   1.000E+00   0.000E+00   9.927E+03  -1.269E+02
   7.413E+05   1.000E+00   0.000E+00   1.006E+04  -1.268E+02
   7.586E+05   1.000E+00   0.000E+00   1.019E+04  -1.267E+02
   7.762E+05   1.000E+00   0.000E+00   1.032E+04  -1.267E+02
   7.943E+05   1.000E+00   0.000E+00   1.046E+04  -1.266E+02
   8.128E+05   1.000E+00   0.000E+00   1.060E+04  -1.265E+02
   8.318E+05   1.000E+00   0.000E+00   1.074E+04  -1.264E+02
   8.511E+05   1.000E+00   0.000E+00   1.088E+04  -1.263E+02
   8.710E+05   1.000E+00   0.000E+00   1.103E+04  -1.262E+02
   8.913E+05   1.000E+00   0.000E+00   1.118E+04  -1.261E+02
   9.120E+05   1.000E+00   0.000E+00   1.134E+04  -1.260E+02
   9.333E+05   1.000E+00   0.000E+00   1.149E+04  -1.259E+02
   9.550E+05   1.000E+00   0.000E+00   1.166E+04  -1.259E+02
   9.772E+05   1.000E+00   0.000E+00   1.182E+04  -1.258E+02
   1.000E+06   1.000E+00   0.000E+00   1.199E+04  -1.257E+02


          JOB CONCLUDED

**** 12/13/19 16:37:54 ******* PSpice Lite (March 2016) ******* ID# 10813 ****

 * Matlab created *.cir-file *


 ****     JOB STATISTICS SUMMARY


******************************************************************************



  Total job time (using Solver 1)   =         .08
