
**** 12/12/19 15:37:00 ******* PSpice Lite (March 2016) ******* ID# 10813 ****

 * Matlab created *.cir-file *


 ****     CIRCUIT DESCRIPTION


******************************************************************************



.lib C:\Cadence\SPB_17.2\tools\pspice\library\eval.lib
VIN        1   0   AC 1V
R1 1 2 2.3291
C1 1 2 1.1914
R2 2 3 0.23786
C2 2 3 1.1573
R3 3 4 0.047192
C3 3 4 0.57865
R4 4 5 0.0093629
C4 4 5 0.28933
R5 5 6 0.0018576
C5 5 6 0.14466
R6 6 7 0.00036855
C6 6 7 0.072331
R7 7 8 7.312e-05
C7 7 8 0.036166
R8 8 9 1.4507e-05
C8 8 9 0.018083
R9 9 10 2.8782e-06
C9 9 10 0.0090414
R10 10 11 5.7103e-07
C10 10 11 0.0045207
R11 11 12 1.1329e-07
C11 11 12 0.0022604
R12 12 13 1.1239e-08
C12 12 13 0.0022604
R13 13 0 1.3897e-08
.AC DEC 100 1 1000000
.PRINT AC VM(1) VP(1) IM(VIN) IP(VIN)
.END

**** 12/12/19 15:37:00 ******* PSpice Lite (March 2016) ******* ID# 10813 ****

 * Matlab created *.cir-file *


 ****     SMALL SIGNAL BIAS SOLUTION       TEMPERATURE =   27.000 DEG C


******************************************************************************



 NODE   VOLTAGE     NODE   VOLTAGE     NODE   VOLTAGE     NODE   VOLTAGE


(    1)    0.0000  (    2)    0.0000  (    3)    0.0000  (    4)    0.0000      

(    5)    0.0000  (    6)    0.0000  (    7)    0.0000  (    8)    0.0000      

(    9)    0.0000  (   10)    0.0000  (   11)    0.0000  (   12)    0.0000      

(   13)    0.0000  




    VOLTAGE SOURCE CURRENTS
    NAME         CURRENT

    VIN          0.000E+00

    TOTAL POWER DISSIPATION   0.00E+00  WATTS


**** 12/12/19 15:37:00 ******* PSpice Lite (March 2016) ******* ID# 10813 ****

 * Matlab created *.cir-file *


 ****     AC ANALYSIS                      TEMPERATURE =   27.000 DEG C


******************************************************************************



  FREQ        VM(1)       VP(1)       IM(VIN)     IP(VIN)     


   1.000E+00   1.000E+00   0.000E+00   3.646E+00  -1.171E+02
   1.023E+00   1.000E+00   0.000E+00   3.710E+00  -1.170E+02
   1.047E+00   1.000E+00   0.000E+00   3.775E+00  -1.169E+02
   1.072E+00   1.000E+00   0.000E+00   3.841E+00  -1.169E+02
   1.096E+00   1.000E+00   0.000E+00   3.908E+00  -1.168E+02
   1.122E+00   1.000E+00   0.000E+00   3.977E+00  -1.167E+02
   1.148E+00   1.000E+00   0.000E+00   4.047E+00  -1.167E+02
   1.175E+00   1.000E+00   0.000E+00   4.119E+00  -1.167E+02
   1.202E+00   1.000E+00   0.000E+00   4.191E+00  -1.166E+02
   1.230E+00   1.000E+00   0.000E+00   4.265E+00  -1.166E+02
   1.259E+00   1.000E+00   0.000E+00   4.341E+00  -1.166E+02
   1.288E+00   1.000E+00   0.000E+00   4.418E+00  -1.165E+02
   1.318E+00   1.000E+00   0.000E+00   4.496E+00  -1.165E+02
   1.349E+00   1.000E+00   0.000E+00   4.575E+00  -1.165E+02
   1.380E+00   1.000E+00   0.000E+00   4.656E+00  -1.165E+02
   1.413E+00   1.000E+00   0.000E+00   4.739E+00  -1.165E+02
   1.445E+00   1.000E+00   0.000E+00   4.822E+00  -1.165E+02
   1.479E+00   1.000E+00   0.000E+00   4.907E+00  -1.165E+02
   1.514E+00   1.000E+00   0.000E+00   4.993E+00  -1.165E+02
   1.549E+00   1.000E+00   0.000E+00   5.081E+00  -1.166E+02
   1.585E+00   1.000E+00   0.000E+00   5.170E+00  -1.166E+02
   1.622E+00   1.000E+00   0.000E+00   5.260E+00  -1.166E+02
   1.660E+00   1.000E+00   0.000E+00   5.352E+00  -1.167E+02
   1.698E+00   1.000E+00   0.000E+00   5.444E+00  -1.167E+02
   1.738E+00   1.000E+00   0.000E+00   5.538E+00  -1.167E+02
   1.778E+00   1.000E+00   0.000E+00   5.634E+00  -1.168E+02
   1.820E+00   1.000E+00   0.000E+00   5.730E+00  -1.168E+02
   1.862E+00   1.000E+00   0.000E+00   5.828E+00  -1.169E+02
   1.905E+00   1.000E+00   0.000E+00   5.928E+00  -1.170E+02
   1.950E+00   1.000E+00   0.000E+00   6.028E+00  -1.170E+02
   1.995E+00   1.000E+00   0.000E+00   6.129E+00  -1.171E+02
   2.042E+00   1.000E+00   0.000E+00   6.232E+00  -1.171E+02
   2.089E+00   1.000E+00   0.000E+00   6.336E+00  -1.172E+02
   2.138E+00   1.000E+00   0.000E+00   6.441E+00  -1.173E+02
   2.188E+00   1.000E+00   0.000E+00   6.548E+00  -1.173E+02
   2.239E+00   1.000E+00   0.000E+00   6.655E+00  -1.174E+02
   2.291E+00   1.000E+00   0.000E+00   6.764E+00  -1.175E+02
   2.344E+00   1.000E+00   0.000E+00   6.874E+00  -1.176E+02
   2.399E+00   1.000E+00   0.000E+00   6.985E+00  -1.176E+02
   2.455E+00   1.000E+00   0.000E+00   7.097E+00  -1.177E+02
   2.512E+00   1.000E+00   0.000E+00   7.210E+00  -1.178E+02
   2.570E+00   1.000E+00   0.000E+00   7.325E+00  -1.179E+02
   2.630E+00   1.000E+00   0.000E+00   7.440E+00  -1.179E+02
   2.692E+00   1.000E+00   0.000E+00   7.557E+00  -1.180E+02
   2.754E+00   1.000E+00   0.000E+00   7.675E+00  -1.181E+02
   2.818E+00   1.000E+00   0.000E+00   7.794E+00  -1.181E+02
   2.884E+00   1.000E+00   0.000E+00   7.914E+00  -1.182E+02
   2.951E+00   1.000E+00   0.000E+00   8.036E+00  -1.182E+02
   3.020E+00   1.000E+00   0.000E+00   8.159E+00  -1.183E+02
   3.090E+00   1.000E+00   0.000E+00   8.283E+00  -1.184E+02
   3.162E+00   1.000E+00   0.000E+00   8.409E+00  -1.184E+02
   3.236E+00   1.000E+00   0.000E+00   8.536E+00  -1.185E+02
   3.311E+00   1.000E+00   0.000E+00   8.664E+00  -1.185E+02
   3.388E+00   1.000E+00   0.000E+00   8.794E+00  -1.185E+02
   3.467E+00   1.000E+00   0.000E+00   8.925E+00  -1.186E+02
   3.548E+00   1.000E+00   0.000E+00   9.058E+00  -1.186E+02
   3.631E+00   1.000E+00   0.000E+00   9.193E+00  -1.186E+02
   3.715E+00   1.000E+00   0.000E+00   9.329E+00  -1.186E+02
   3.802E+00   1.000E+00   0.000E+00   9.467E+00  -1.187E+02
   3.890E+00   1.000E+00   0.000E+00   9.607E+00  -1.187E+02
   3.981E+00   1.000E+00   0.000E+00   9.749E+00  -1.187E+02
   4.074E+00   1.000E+00   0.000E+00   9.892E+00  -1.187E+02
   4.169E+00   1.000E+00   0.000E+00   1.004E+01  -1.187E+02
   4.266E+00   1.000E+00   0.000E+00   1.019E+01  -1.187E+02
   4.365E+00   1.000E+00   0.000E+00   1.034E+01  -1.186E+02
   4.467E+00   1.000E+00   0.000E+00   1.049E+01  -1.186E+02
   4.571E+00   1.000E+00   0.000E+00   1.064E+01  -1.186E+02
   4.677E+00   1.000E+00   0.000E+00   1.080E+01  -1.186E+02
   4.786E+00   1.000E+00   0.000E+00   1.096E+01  -1.185E+02
   4.898E+00   1.000E+00   0.000E+00   1.113E+01  -1.185E+02
   5.012E+00   1.000E+00   0.000E+00   1.129E+01  -1.184E+02
   5.129E+00   1.000E+00   0.000E+00   1.146E+01  -1.184E+02
   5.248E+00   1.000E+00   0.000E+00   1.163E+01  -1.183E+02
   5.370E+00   1.000E+00   0.000E+00   1.181E+01  -1.183E+02
   5.495E+00   1.000E+00   0.000E+00   1.199E+01  -1.182E+02
   5.623E+00   1.000E+00   0.000E+00   1.217E+01  -1.182E+02
   5.754E+00   1.000E+00   0.000E+00   1.236E+01  -1.181E+02
   5.888E+00   1.000E+00   0.000E+00   1.255E+01  -1.180E+02
   6.026E+00   1.000E+00   0.000E+00   1.274E+01  -1.179E+02
   6.166E+00   1.000E+00   0.000E+00   1.294E+01  -1.179E+02
   6.310E+00   1.000E+00   0.000E+00   1.314E+01  -1.178E+02
   6.457E+00   1.000E+00   0.000E+00   1.335E+01  -1.177E+02
   6.607E+00   1.000E+00   0.000E+00   1.356E+01  -1.176E+02
   6.761E+00   1.000E+00   0.000E+00   1.377E+01  -1.175E+02
   6.918E+00   1.000E+00   0.000E+00   1.399E+01  -1.175E+02
   7.079E+00   1.000E+00   0.000E+00   1.422E+01  -1.174E+02
   7.244E+00   1.000E+00   0.000E+00   1.445E+01  -1.173E+02
   7.413E+00   1.000E+00   0.000E+00   1.468E+01  -1.172E+02
   7.586E+00   1.000E+00   0.000E+00   1.492E+01  -1.171E+02
   7.762E+00   1.000E+00   0.000E+00   1.517E+01  -1.170E+02
   7.943E+00   1.000E+00   0.000E+00   1.542E+01  -1.170E+02
   8.128E+00   1.000E+00   0.000E+00   1.567E+01  -1.169E+02
   8.318E+00   1.000E+00   0.000E+00   1.593E+01  -1.168E+02
   8.511E+00   1.000E+00   0.000E+00   1.620E+01  -1.167E+02
   8.710E+00   1.000E+00   0.000E+00   1.647E+01  -1.166E+02
   8.913E+00   1.000E+00   0.000E+00   1.675E+01  -1.166E+02
   9.120E+00   1.000E+00   0.000E+00   1.704E+01  -1.165E+02
   9.333E+00   1.000E+00   0.000E+00   1.733E+01  -1.164E+02
   9.550E+00   1.000E+00   0.000E+00   1.763E+01  -1.164E+02
   9.772E+00   1.000E+00   0.000E+00   1.793E+01  -1.163E+02
   1.000E+01   1.000E+00   0.000E+00   1.824E+01  -1.163E+02
   1.023E+01   1.000E+00   0.000E+00   1.855E+01  -1.162E+02
   1.047E+01   1.000E+00   0.000E+00   1.888E+01  -1.161E+02
   1.072E+01   1.000E+00   0.000E+00   1.921E+01  -1.161E+02
   1.096E+01   1.000E+00   0.000E+00   1.954E+01  -1.161E+02
   1.122E+01   1.000E+00   0.000E+00   1.988E+01  -1.160E+02
   1.148E+01   1.000E+00   0.000E+00   2.023E+01  -1.160E+02
   1.175E+01   1.000E+00   0.000E+00   2.059E+01  -1.160E+02
   1.202E+01   1.000E+00   0.000E+00   2.095E+01  -1.159E+02
   1.230E+01   1.000E+00   0.000E+00   2.132E+01  -1.159E+02
   1.259E+01   1.000E+00   0.000E+00   2.169E+01  -1.159E+02
   1.288E+01   1.000E+00   0.000E+00   2.208E+01  -1.159E+02
   1.318E+01   1.000E+00   0.000E+00   2.247E+01  -1.159E+02
   1.349E+01   1.000E+00   0.000E+00   2.286E+01  -1.159E+02
   1.380E+01   1.000E+00   0.000E+00   2.326E+01  -1.159E+02
   1.413E+01   1.000E+00   0.000E+00   2.367E+01  -1.159E+02
   1.445E+01   1.000E+00   0.000E+00   2.409E+01  -1.159E+02
   1.479E+01   1.000E+00   0.000E+00   2.451E+01  -1.160E+02
   1.514E+01   1.000E+00   0.000E+00   2.494E+01  -1.160E+02
   1.549E+01   1.000E+00   0.000E+00   2.538E+01  -1.160E+02
   1.585E+01   1.000E+00   0.000E+00   2.582E+01  -1.161E+02
   1.622E+01   1.000E+00   0.000E+00   2.627E+01  -1.161E+02
   1.660E+01   1.000E+00   0.000E+00   2.673E+01  -1.161E+02
   1.698E+01   1.000E+00   0.000E+00   2.719E+01  -1.162E+02
   1.738E+01   1.000E+00   0.000E+00   2.766E+01  -1.162E+02
   1.778E+01   1.000E+00   0.000E+00   2.814E+01  -1.163E+02
   1.820E+01   1.000E+00   0.000E+00   2.862E+01  -1.164E+02
   1.862E+01   1.000E+00   0.000E+00   2.911E+01  -1.164E+02
   1.905E+01   1.000E+00   0.000E+00   2.961E+01  -1.165E+02
   1.950E+01   1.000E+00   0.000E+00   3.011E+01  -1.166E+02
   1.995E+01   1.000E+00   0.000E+00   3.062E+01  -1.166E+02
   2.042E+01   1.000E+00   0.000E+00   3.113E+01  -1.167E+02
   2.089E+01   1.000E+00   0.000E+00   3.165E+01  -1.168E+02
   2.138E+01   1.000E+00   0.000E+00   3.218E+01  -1.169E+02
   2.188E+01   1.000E+00   0.000E+00   3.271E+01  -1.169E+02
   2.239E+01   1.000E+00   0.000E+00   3.325E+01  -1.170E+02
   2.291E+01   1.000E+00   0.000E+00   3.379E+01  -1.171E+02
   2.344E+01   1.000E+00   0.000E+00   3.434E+01  -1.172E+02
   2.399E+01   1.000E+00   0.000E+00   3.489E+01  -1.172E+02
   2.455E+01   1.000E+00   0.000E+00   3.545E+01  -1.173E+02
   2.512E+01   1.000E+00   0.000E+00   3.602E+01  -1.174E+02
   2.570E+01   1.000E+00   0.000E+00   3.659E+01  -1.175E+02
   2.630E+01   1.000E+00   0.000E+00   3.717E+01  -1.176E+02
   2.692E+01   1.000E+00   0.000E+00   3.776E+01  -1.176E+02
   2.754E+01   1.000E+00   0.000E+00   3.835E+01  -1.177E+02
   2.818E+01   1.000E+00   0.000E+00   3.894E+01  -1.178E+02
   2.884E+01   1.000E+00   0.000E+00   3.955E+01  -1.179E+02
   2.951E+01   1.000E+00   0.000E+00   4.016E+01  -1.179E+02
   3.020E+01   1.000E+00   0.000E+00   4.077E+01  -1.180E+02
   3.090E+01   1.000E+00   0.000E+00   4.139E+01  -1.180E+02
   3.162E+01   1.000E+00   0.000E+00   4.202E+01  -1.181E+02
   3.236E+01   1.000E+00   0.000E+00   4.266E+01  -1.182E+02
   3.311E+01   1.000E+00   0.000E+00   4.330E+01  -1.182E+02
   3.388E+01   1.000E+00   0.000E+00   4.395E+01  -1.182E+02
   3.467E+01   1.000E+00   0.000E+00   4.461E+01  -1.183E+02
   3.548E+01   1.000E+00   0.000E+00   4.527E+01  -1.183E+02
   3.631E+01   1.000E+00   0.000E+00   4.594E+01  -1.184E+02
   3.715E+01   1.000E+00   0.000E+00   4.663E+01  -1.184E+02
   3.802E+01   1.000E+00   0.000E+00   4.732E+01  -1.184E+02
   3.890E+01   1.000E+00   0.000E+00   4.802E+01  -1.184E+02
   3.981E+01   1.000E+00   0.000E+00   4.873E+01  -1.184E+02
   4.074E+01   1.000E+00   0.000E+00   4.944E+01  -1.184E+02
   4.169E+01   1.000E+00   0.000E+00   5.017E+01  -1.184E+02
   4.266E+01   1.000E+00   0.000E+00   5.091E+01  -1.184E+02
   4.365E+01   1.000E+00   0.000E+00   5.167E+01  -1.184E+02
   4.467E+01   1.000E+00   0.000E+00   5.243E+01  -1.184E+02
   4.571E+01   1.000E+00   0.000E+00   5.321E+01  -1.184E+02
   4.677E+01   1.000E+00   0.000E+00   5.399E+01  -1.184E+02
   4.786E+01   1.000E+00   0.000E+00   5.480E+01  -1.183E+02
   4.898E+01   1.000E+00   0.000E+00   5.561E+01  -1.183E+02
   5.012E+01   1.000E+00   0.000E+00   5.644E+01  -1.183E+02
   5.129E+01   1.000E+00   0.000E+00   5.729E+01  -1.182E+02
   5.248E+01   1.000E+00   0.000E+00   5.815E+01  -1.182E+02
   5.370E+01   1.000E+00   0.000E+00   5.903E+01  -1.181E+02
   5.495E+01   1.000E+00   0.000E+00   5.992E+01  -1.181E+02
   5.623E+01   1.000E+00   0.000E+00   6.083E+01  -1.180E+02
   5.754E+01   1.000E+00   0.000E+00   6.176E+01  -1.179E+02
   5.888E+01   1.000E+00   0.000E+00   6.271E+01  -1.179E+02
   6.026E+01   1.000E+00   0.000E+00   6.368E+01  -1.178E+02
   6.166E+01   1.000E+00   0.000E+00   6.467E+01  -1.177E+02
   6.310E+01   1.000E+00   0.000E+00   6.567E+01  -1.176E+02
   6.457E+01   1.000E+00   0.000E+00   6.670E+01  -1.176E+02
   6.607E+01   1.000E+00   0.000E+00   6.776E+01  -1.175E+02
   6.761E+01   1.000E+00   0.000E+00   6.883E+01  -1.174E+02
   6.918E+01   1.000E+00   0.000E+00   6.993E+01  -1.173E+02
   7.079E+01   1.000E+00   0.000E+00   7.105E+01  -1.173E+02
   7.244E+01   1.000E+00   0.000E+00   7.219E+01  -1.172E+02
   7.413E+01   1.000E+00   0.000E+00   7.336E+01  -1.171E+02
   7.586E+01   1.000E+00   0.000E+00   7.456E+01  -1.170E+02
   7.762E+01   1.000E+00   0.000E+00   7.578E+01  -1.169E+02
   7.943E+01   1.000E+00   0.000E+00   7.703E+01  -1.168E+02
   8.128E+01   1.000E+00   0.000E+00   7.831E+01  -1.168E+02
   8.318E+01   1.000E+00   0.000E+00   7.961E+01  -1.167E+02
   8.511E+01   1.000E+00   0.000E+00   8.094E+01  -1.166E+02
   8.710E+01   1.000E+00   0.000E+00   8.231E+01  -1.165E+02
   8.913E+01   1.000E+00   0.000E+00   8.370E+01  -1.165E+02
   9.120E+01   1.000E+00   0.000E+00   8.512E+01  -1.164E+02
   9.333E+01   1.000E+00   0.000E+00   8.657E+01  -1.163E+02
   9.550E+01   1.000E+00   0.000E+00   8.805E+01  -1.163E+02
   9.772E+01   1.000E+00   0.000E+00   8.956E+01  -1.162E+02
   1.000E+02   1.000E+00   0.000E+00   9.111E+01  -1.161E+02
   1.023E+02   1.000E+00   0.000E+00   9.269E+01  -1.161E+02
   1.047E+02   1.000E+00   0.000E+00   9.429E+01  -1.160E+02
   1.072E+02   1.000E+00   0.000E+00   9.594E+01  -1.160E+02
   1.096E+02   1.000E+00   0.000E+00   9.761E+01  -1.160E+02
   1.122E+02   1.000E+00   0.000E+00   9.932E+01  -1.159E+02
   1.148E+02   1.000E+00   0.000E+00   1.011E+02  -1.159E+02
   1.175E+02   1.000E+00   0.000E+00   1.028E+02  -1.159E+02
   1.202E+02   1.000E+00   0.000E+00   1.046E+02  -1.158E+02
   1.230E+02   1.000E+00   0.000E+00   1.065E+02  -1.158E+02
   1.259E+02   1.000E+00   0.000E+00   1.084E+02  -1.158E+02
   1.288E+02   1.000E+00   0.000E+00   1.103E+02  -1.158E+02
   1.318E+02   1.000E+00   0.000E+00   1.122E+02  -1.158E+02
   1.349E+02   1.000E+00   0.000E+00   1.142E+02  -1.158E+02
   1.380E+02   1.000E+00   0.000E+00   1.162E+02  -1.158E+02
   1.413E+02   1.000E+00   0.000E+00   1.183E+02  -1.158E+02
   1.445E+02   1.000E+00   0.000E+00   1.204E+02  -1.158E+02
   1.479E+02   1.000E+00   0.000E+00   1.225E+02  -1.159E+02
   1.514E+02   1.000E+00   0.000E+00   1.246E+02  -1.159E+02
   1.549E+02   1.000E+00   0.000E+00   1.268E+02  -1.159E+02
   1.585E+02   1.000E+00   0.000E+00   1.290E+02  -1.159E+02
   1.622E+02   1.000E+00   0.000E+00   1.313E+02  -1.160E+02
   1.660E+02   1.000E+00   0.000E+00   1.336E+02  -1.160E+02
   1.698E+02   1.000E+00   0.000E+00   1.359E+02  -1.161E+02
   1.738E+02   1.000E+00   0.000E+00   1.382E+02  -1.161E+02
   1.778E+02   1.000E+00   0.000E+00   1.406E+02  -1.162E+02
   1.820E+02   1.000E+00   0.000E+00   1.430E+02  -1.162E+02
   1.862E+02   1.000E+00   0.000E+00   1.455E+02  -1.163E+02
   1.905E+02   1.000E+00   0.000E+00   1.480E+02  -1.164E+02
   1.950E+02   1.000E+00   0.000E+00   1.505E+02  -1.164E+02
   1.995E+02   1.000E+00   0.000E+00   1.530E+02  -1.165E+02
   2.042E+02   1.000E+00   0.000E+00   1.556E+02  -1.166E+02
   2.089E+02   1.000E+00   0.000E+00   1.582E+02  -1.167E+02
   2.138E+02   1.000E+00   0.000E+00   1.608E+02  -1.167E+02
   2.188E+02   1.000E+00   0.000E+00   1.635E+02  -1.168E+02
   2.239E+02   1.000E+00   0.000E+00   1.662E+02  -1.169E+02
   2.291E+02   1.000E+00   0.000E+00   1.689E+02  -1.170E+02
   2.344E+02   1.000E+00   0.000E+00   1.717E+02  -1.171E+02
   2.399E+02   1.000E+00   0.000E+00   1.745E+02  -1.171E+02
   2.455E+02   1.000E+00   0.000E+00   1.773E+02  -1.172E+02
   2.512E+02   1.000E+00   0.000E+00   1.801E+02  -1.173E+02
   2.570E+02   1.000E+00   0.000E+00   1.830E+02  -1.174E+02
   2.630E+02   1.000E+00   0.000E+00   1.859E+02  -1.175E+02
   2.692E+02   1.000E+00   0.000E+00   1.888E+02  -1.175E+02
   2.754E+02   1.000E+00   0.000E+00   1.918E+02  -1.176E+02
   2.818E+02   1.000E+00   0.000E+00   1.948E+02  -1.177E+02
   2.884E+02   1.000E+00   0.000E+00   1.978E+02  -1.178E+02
   2.951E+02   1.000E+00   0.000E+00   2.009E+02  -1.178E+02
   3.020E+02   1.000E+00   0.000E+00   2.040E+02  -1.179E+02
   3.090E+02   1.000E+00   0.000E+00   2.071E+02  -1.179E+02
   3.162E+02   1.000E+00   0.000E+00   2.102E+02  -1.180E+02
   3.236E+02   1.000E+00   0.000E+00   2.134E+02  -1.181E+02
   3.311E+02   1.000E+00   0.000E+00   2.166E+02  -1.181E+02
   3.388E+02   1.000E+00   0.000E+00   2.199E+02  -1.182E+02
   3.467E+02   1.000E+00   0.000E+00   2.232E+02  -1.182E+02
   3.548E+02   1.000E+00   0.000E+00   2.265E+02  -1.182E+02
   3.631E+02   1.000E+00   0.000E+00   2.299E+02  -1.183E+02
   3.715E+02   1.000E+00   0.000E+00   2.333E+02  -1.183E+02
   3.802E+02   1.000E+00   0.000E+00   2.368E+02  -1.183E+02
   3.890E+02   1.000E+00   0.000E+00   2.403E+02  -1.183E+02
   3.981E+02   1.000E+00   0.000E+00   2.438E+02  -1.184E+02
   4.074E+02   1.000E+00   0.000E+00   2.474E+02  -1.184E+02
   4.169E+02   1.000E+00   0.000E+00   2.511E+02  -1.184E+02
   4.266E+02   1.000E+00   0.000E+00   2.548E+02  -1.184E+02
   4.365E+02   1.000E+00   0.000E+00   2.586E+02  -1.184E+02
   4.467E+02   1.000E+00   0.000E+00   2.624E+02  -1.183E+02
   4.571E+02   1.000E+00   0.000E+00   2.663E+02  -1.183E+02
   4.677E+02   1.000E+00   0.000E+00   2.702E+02  -1.183E+02
   4.786E+02   1.000E+00   0.000E+00   2.742E+02  -1.183E+02
   4.898E+02   1.000E+00   0.000E+00   2.783E+02  -1.182E+02
   5.012E+02   1.000E+00   0.000E+00   2.825E+02  -1.182E+02
   5.129E+02   1.000E+00   0.000E+00   2.867E+02  -1.182E+02
   5.248E+02   1.000E+00   0.000E+00   2.910E+02  -1.181E+02
   5.370E+02   1.000E+00   0.000E+00   2.954E+02  -1.181E+02
   5.495E+02   1.000E+00   0.000E+00   2.999E+02  -1.180E+02
   5.623E+02   1.000E+00   0.000E+00   3.044E+02  -1.180E+02
   5.754E+02   1.000E+00   0.000E+00   3.091E+02  -1.179E+02
   5.888E+02   1.000E+00   0.000E+00   3.138E+02  -1.178E+02
   6.026E+02   1.000E+00   0.000E+00   3.187E+02  -1.178E+02
   6.166E+02   1.000E+00   0.000E+00   3.236E+02  -1.177E+02
   6.310E+02   1.000E+00   0.000E+00   3.286E+02  -1.176E+02
   6.457E+02   1.000E+00   0.000E+00   3.338E+02  -1.175E+02
   6.607E+02   1.000E+00   0.000E+00   3.390E+02  -1.175E+02
   6.761E+02   1.000E+00   0.000E+00   3.444E+02  -1.174E+02
   6.918E+02   1.000E+00   0.000E+00   3.499E+02  -1.173E+02
   7.079E+02   1.000E+00   0.000E+00   3.555E+02  -1.172E+02
   7.244E+02   1.000E+00   0.000E+00   3.612E+02  -1.171E+02
   7.413E+02   1.000E+00   0.000E+00   3.671E+02  -1.171E+02
   7.586E+02   1.000E+00   0.000E+00   3.730E+02  -1.170E+02
   7.762E+02   1.000E+00   0.000E+00   3.792E+02  -1.169E+02
   7.943E+02   1.000E+00   0.000E+00   3.854E+02  -1.168E+02
   8.128E+02   1.000E+00   0.000E+00   3.918E+02  -1.167E+02
   8.318E+02   1.000E+00   0.000E+00   3.983E+02  -1.167E+02
   8.511E+02   1.000E+00   0.000E+00   4.049E+02  -1.166E+02
   8.710E+02   1.000E+00   0.000E+00   4.118E+02  -1.165E+02
   8.913E+02   1.000E+00   0.000E+00   4.187E+02  -1.164E+02
   9.120E+02   1.000E+00   0.000E+00   4.258E+02  -1.164E+02
   9.333E+02   1.000E+00   0.000E+00   4.331E+02  -1.163E+02
   9.550E+02   1.000E+00   0.000E+00   4.405E+02  -1.162E+02
   9.772E+02   1.000E+00   0.000E+00   4.480E+02  -1.162E+02
   1.000E+03   1.000E+00   0.000E+00   4.558E+02  -1.161E+02
   1.023E+03   1.000E+00   0.000E+00   4.636E+02  -1.161E+02
   1.047E+03   1.000E+00   0.000E+00   4.717E+02  -1.160E+02
   1.072E+03   1.000E+00   0.000E+00   4.799E+02  -1.160E+02
   1.096E+03   1.000E+00   0.000E+00   4.883E+02  -1.159E+02
   1.122E+03   1.000E+00   0.000E+00   4.968E+02  -1.159E+02
   1.148E+03   1.000E+00   0.000E+00   5.055E+02  -1.159E+02
   1.175E+03   1.000E+00   0.000E+00   5.144E+02  -1.158E+02
   1.202E+03   1.000E+00   0.000E+00   5.234E+02  -1.158E+02
   1.230E+03   1.000E+00   0.000E+00   5.327E+02  -1.158E+02
   1.259E+03   1.000E+00   0.000E+00   5.421E+02  -1.158E+02
   1.288E+03   1.000E+00   0.000E+00   5.516E+02  -1.158E+02
   1.318E+03   1.000E+00   0.000E+00   5.614E+02  -1.158E+02
   1.349E+03   1.000E+00   0.000E+00   5.713E+02  -1.158E+02
   1.380E+03   1.000E+00   0.000E+00   5.814E+02  -1.158E+02
   1.413E+03   1.000E+00   0.000E+00   5.916E+02  -1.158E+02
   1.445E+03   1.000E+00   0.000E+00   6.020E+02  -1.158E+02
   1.479E+03   1.000E+00   0.000E+00   6.126E+02  -1.158E+02
   1.514E+03   1.000E+00   0.000E+00   6.234E+02  -1.158E+02
   1.549E+03   1.000E+00   0.000E+00   6.344E+02  -1.159E+02
   1.585E+03   1.000E+00   0.000E+00   6.455E+02  -1.159E+02
   1.622E+03   1.000E+00   0.000E+00   6.568E+02  -1.159E+02
   1.660E+03   1.000E+00   0.000E+00   6.682E+02  -1.160E+02
   1.698E+03   1.000E+00   0.000E+00   6.798E+02  -1.160E+02
   1.738E+03   1.000E+00   0.000E+00   6.916E+02  -1.161E+02
   1.778E+03   1.000E+00   0.000E+00   7.036E+02  -1.161E+02
   1.820E+03   1.000E+00   0.000E+00   7.157E+02  -1.162E+02
   1.862E+03   1.000E+00   0.000E+00   7.280E+02  -1.162E+02
   1.905E+03   1.000E+00   0.000E+00   7.404E+02  -1.163E+02
   1.950E+03   1.000E+00   0.000E+00   7.530E+02  -1.164E+02
   1.995E+03   1.000E+00   0.000E+00   7.658E+02  -1.164E+02
   2.042E+03   1.000E+00   0.000E+00   7.787E+02  -1.165E+02
   2.089E+03   1.000E+00   0.000E+00   7.918E+02  -1.166E+02
   2.138E+03   1.000E+00   0.000E+00   8.050E+02  -1.167E+02
   2.188E+03   1.000E+00   0.000E+00   8.183E+02  -1.167E+02
   2.239E+03   1.000E+00   0.000E+00   8.319E+02  -1.168E+02
   2.291E+03   1.000E+00   0.000E+00   8.455E+02  -1.169E+02
   2.344E+03   1.000E+00   0.000E+00   8.594E+02  -1.170E+02
   2.399E+03   1.000E+00   0.000E+00   8.733E+02  -1.171E+02
   2.455E+03   1.000E+00   0.000E+00   8.875E+02  -1.172E+02
   2.512E+03   1.000E+00   0.000E+00   9.017E+02  -1.172E+02
   2.570E+03   1.000E+00   0.000E+00   9.161E+02  -1.173E+02
   2.630E+03   1.000E+00   0.000E+00   9.307E+02  -1.174E+02
   2.692E+03   1.000E+00   0.000E+00   9.454E+02  -1.175E+02
   2.754E+03   1.000E+00   0.000E+00   9.603E+02  -1.175E+02
   2.818E+03   1.000E+00   0.000E+00   9.753E+02  -1.176E+02
   2.884E+03   1.000E+00   0.000E+00   9.905E+02  -1.177E+02
   2.951E+03   1.000E+00   0.000E+00   1.006E+03  -1.178E+02
   3.020E+03   1.000E+00   0.000E+00   1.021E+03  -1.178E+02
   3.090E+03   1.000E+00   0.000E+00   1.037E+03  -1.179E+02
   3.162E+03   1.000E+00   0.000E+00   1.053E+03  -1.179E+02
   3.236E+03   1.000E+00   0.000E+00   1.069E+03  -1.180E+02
   3.311E+03   1.000E+00   0.000E+00   1.085E+03  -1.181E+02
   3.388E+03   1.000E+00   0.000E+00   1.101E+03  -1.181E+02
   3.467E+03   1.000E+00   0.000E+00   1.118E+03  -1.182E+02
   3.548E+03   1.000E+00   0.000E+00   1.135E+03  -1.182E+02
   3.631E+03   1.000E+00   0.000E+00   1.152E+03  -1.182E+02
   3.715E+03   1.000E+00   0.000E+00   1.169E+03  -1.183E+02
   3.802E+03   1.000E+00   0.000E+00   1.186E+03  -1.183E+02
   3.890E+03   1.000E+00   0.000E+00   1.204E+03  -1.183E+02
   3.981E+03   1.000E+00   0.000E+00   1.221E+03  -1.183E+02
   4.074E+03   1.000E+00   0.000E+00   1.240E+03  -1.183E+02
   4.169E+03   1.000E+00   0.000E+00   1.258E+03  -1.183E+02
   4.266E+03   1.000E+00   0.000E+00   1.276E+03  -1.183E+02
   4.365E+03   1.000E+00   0.000E+00   1.295E+03  -1.183E+02
   4.467E+03   1.000E+00   0.000E+00   1.314E+03  -1.183E+02
   4.571E+03   1.000E+00   0.000E+00   1.334E+03  -1.183E+02
   4.677E+03   1.000E+00   0.000E+00   1.354E+03  -1.183E+02
   4.786E+03   1.000E+00   0.000E+00   1.374E+03  -1.183E+02
   4.898E+03   1.000E+00   0.000E+00   1.394E+03  -1.182E+02
   5.012E+03   1.000E+00   0.000E+00   1.415E+03  -1.182E+02
   5.129E+03   1.000E+00   0.000E+00   1.436E+03  -1.182E+02
   5.248E+03   1.000E+00   0.000E+00   1.458E+03  -1.181E+02
   5.370E+03   1.000E+00   0.000E+00   1.480E+03  -1.181E+02
   5.495E+03   1.000E+00   0.000E+00   1.502E+03  -1.180E+02
   5.623E+03   1.000E+00   0.000E+00   1.525E+03  -1.179E+02
   5.754E+03   1.000E+00   0.000E+00   1.548E+03  -1.179E+02
   5.888E+03   1.000E+00   0.000E+00   1.572E+03  -1.178E+02
   6.026E+03   1.000E+00   0.000E+00   1.596E+03  -1.178E+02
   6.166E+03   1.000E+00   0.000E+00   1.621E+03  -1.177E+02
   6.310E+03   1.000E+00   0.000E+00   1.646E+03  -1.176E+02
   6.457E+03   1.000E+00   0.000E+00   1.672E+03  -1.175E+02
   6.607E+03   1.000E+00   0.000E+00   1.698E+03  -1.175E+02
   6.761E+03   1.000E+00   0.000E+00   1.725E+03  -1.174E+02
   6.918E+03   1.000E+00   0.000E+00   1.752E+03  -1.173E+02
   7.079E+03   1.000E+00   0.000E+00   1.780E+03  -1.172E+02
   7.244E+03   1.000E+00   0.000E+00   1.809E+03  -1.171E+02
   7.413E+03   1.000E+00   0.000E+00   1.838E+03  -1.171E+02
   7.586E+03   1.000E+00   0.000E+00   1.868E+03  -1.170E+02
   7.762E+03   1.000E+00   0.000E+00   1.899E+03  -1.169E+02
   7.943E+03   1.000E+00   0.000E+00   1.930E+03  -1.168E+02
   8.128E+03   1.000E+00   0.000E+00   1.962E+03  -1.167E+02
   8.318E+03   1.000E+00   0.000E+00   1.994E+03  -1.167E+02
   8.511E+03   1.000E+00   0.000E+00   2.028E+03  -1.166E+02
   8.710E+03   1.000E+00   0.000E+00   2.062E+03  -1.165E+02
   8.913E+03   1.000E+00   0.000E+00   2.096E+03  -1.164E+02
   9.120E+03   1.000E+00   0.000E+00   2.132E+03  -1.164E+02
   9.333E+03   1.000E+00   0.000E+00   2.168E+03  -1.163E+02
   9.550E+03   1.000E+00   0.000E+00   2.205E+03  -1.162E+02
   9.772E+03   1.000E+00   0.000E+00   2.243E+03  -1.162E+02
   1.000E+04   1.000E+00   0.000E+00   2.282E+03  -1.161E+02
   1.023E+04   1.000E+00   0.000E+00   2.321E+03  -1.161E+02
   1.047E+04   1.000E+00   0.000E+00   2.361E+03  -1.160E+02
   1.072E+04   1.000E+00   0.000E+00   2.402E+03  -1.160E+02
   1.096E+04   1.000E+00   0.000E+00   2.444E+03  -1.159E+02
   1.122E+04   1.000E+00   0.000E+00   2.487E+03  -1.159E+02
   1.148E+04   1.000E+00   0.000E+00   2.531E+03  -1.158E+02
   1.175E+04   1.000E+00   0.000E+00   2.575E+03  -1.158E+02
   1.202E+04   1.000E+00   0.000E+00   2.620E+03  -1.158E+02
   1.230E+04   1.000E+00   0.000E+00   2.666E+03  -1.158E+02
   1.259E+04   1.000E+00   0.000E+00   2.713E+03  -1.158E+02
   1.288E+04   1.000E+00   0.000E+00   2.761E+03  -1.157E+02
   1.318E+04   1.000E+00   0.000E+00   2.810E+03  -1.157E+02
   1.349E+04   1.000E+00   0.000E+00   2.860E+03  -1.157E+02
   1.380E+04   1.000E+00   0.000E+00   2.910E+03  -1.157E+02
   1.413E+04   1.000E+00   0.000E+00   2.962E+03  -1.157E+02
   1.445E+04   1.000E+00   0.000E+00   3.014E+03  -1.158E+02
   1.479E+04   1.000E+00   0.000E+00   3.067E+03  -1.158E+02
   1.514E+04   1.000E+00   0.000E+00   3.121E+03  -1.158E+02
   1.549E+04   1.000E+00   0.000E+00   3.176E+03  -1.158E+02
   1.585E+04   1.000E+00   0.000E+00   3.231E+03  -1.159E+02
   1.622E+04   1.000E+00   0.000E+00   3.288E+03  -1.159E+02
   1.660E+04   1.000E+00   0.000E+00   3.345E+03  -1.159E+02
   1.698E+04   1.000E+00   0.000E+00   3.404E+03  -1.160E+02
   1.738E+04   1.000E+00   0.000E+00   3.463E+03  -1.160E+02
   1.778E+04   1.000E+00   0.000E+00   3.523E+03  -1.161E+02
   1.820E+04   1.000E+00   0.000E+00   3.583E+03  -1.161E+02
   1.862E+04   1.000E+00   0.000E+00   3.645E+03  -1.162E+02
   1.905E+04   1.000E+00   0.000E+00   3.707E+03  -1.163E+02
   1.950E+04   1.000E+00   0.000E+00   3.771E+03  -1.163E+02
   1.995E+04   1.000E+00   0.000E+00   3.835E+03  -1.164E+02
   2.042E+04   1.000E+00   0.000E+00   3.899E+03  -1.165E+02
   2.089E+04   1.000E+00   0.000E+00   3.965E+03  -1.165E+02
   2.138E+04   1.000E+00   0.000E+00   4.031E+03  -1.166E+02
   2.188E+04   1.000E+00   0.000E+00   4.098E+03  -1.167E+02
   2.239E+04   1.000E+00   0.000E+00   4.166E+03  -1.168E+02
   2.291E+04   1.000E+00   0.000E+00   4.235E+03  -1.169E+02
   2.344E+04   1.000E+00   0.000E+00   4.304E+03  -1.169E+02
   2.399E+04   1.000E+00   0.000E+00   4.374E+03  -1.170E+02
   2.455E+04   1.000E+00   0.000E+00   4.445E+03  -1.171E+02
   2.512E+04   1.000E+00   0.000E+00   4.517E+03  -1.172E+02
   2.570E+04   1.000E+00   0.000E+00   4.589E+03  -1.173E+02
   2.630E+04   1.000E+00   0.000E+00   4.663E+03  -1.173E+02
   2.692E+04   1.000E+00   0.000E+00   4.736E+03  -1.174E+02
   2.754E+04   1.000E+00   0.000E+00   4.811E+03  -1.175E+02
   2.818E+04   1.000E+00   0.000E+00   4.887E+03  -1.176E+02
   2.884E+04   1.000E+00   0.000E+00   4.963E+03  -1.176E+02
   2.951E+04   1.000E+00   0.000E+00   5.040E+03  -1.177E+02
   3.020E+04   1.000E+00   0.000E+00   5.117E+03  -1.178E+02
   3.090E+04   1.000E+00   0.000E+00   5.196E+03  -1.178E+02
   3.162E+04   1.000E+00   0.000E+00   5.275E+03  -1.179E+02
   3.236E+04   1.000E+00   0.000E+00   5.356E+03  -1.180E+02
   3.311E+04   1.000E+00   0.000E+00   5.437E+03  -1.180E+02
   3.388E+04   1.000E+00   0.000E+00   5.519E+03  -1.181E+02
   3.467E+04   1.000E+00   0.000E+00   5.602E+03  -1.181E+02
   3.548E+04   1.000E+00   0.000E+00   5.686E+03  -1.182E+02
   3.631E+04   1.000E+00   0.000E+00   5.771E+03  -1.182E+02
   3.715E+04   1.000E+00   0.000E+00   5.857E+03  -1.182E+02
   3.802E+04   1.000E+00   0.000E+00   5.944E+03  -1.183E+02
   3.890E+04   1.000E+00   0.000E+00   6.032E+03  -1.183E+02
   3.981E+04   1.000E+00   0.000E+00   6.122E+03  -1.183E+02
   4.074E+04   1.000E+00   0.000E+00   6.212E+03  -1.183E+02
   4.169E+04   1.000E+00   0.000E+00   6.304E+03  -1.183E+02
   4.266E+04   1.000E+00   0.000E+00   6.397E+03  -1.183E+02
   4.365E+04   1.000E+00   0.000E+00   6.492E+03  -1.183E+02
   4.467E+04   1.000E+00   0.000E+00   6.588E+03  -1.183E+02
   4.571E+04   1.000E+00   0.000E+00   6.686E+03  -1.183E+02
   4.677E+04   1.000E+00   0.000E+00   6.785E+03  -1.183E+02
   4.786E+04   1.000E+00   0.000E+00   6.885E+03  -1.183E+02
   4.898E+04   1.000E+00   0.000E+00   6.988E+03  -1.182E+02
   5.012E+04   1.000E+00   0.000E+00   7.092E+03  -1.182E+02
   5.129E+04   1.000E+00   0.000E+00   7.198E+03  -1.181E+02
   5.248E+04   1.000E+00   0.000E+00   7.306E+03  -1.181E+02
   5.370E+04   1.000E+00   0.000E+00   7.416E+03  -1.181E+02
   5.495E+04   1.000E+00   0.000E+00   7.528E+03  -1.180E+02
   5.623E+04   1.000E+00   0.000E+00   7.642E+03  -1.180E+02
   5.754E+04   1.000E+00   0.000E+00   7.759E+03  -1.179E+02
   5.888E+04   1.000E+00   0.000E+00   7.877E+03  -1.178E+02
   6.026E+04   1.000E+00   0.000E+00   7.999E+03  -1.178E+02
   6.166E+04   1.000E+00   0.000E+00   8.122E+03  -1.177E+02
   6.310E+04   1.000E+00   0.000E+00   8.248E+03  -1.176E+02
   6.457E+04   1.000E+00   0.000E+00   8.377E+03  -1.176E+02
   6.607E+04   1.000E+00   0.000E+00   8.509E+03  -1.175E+02
   6.761E+04   1.000E+00   0.000E+00   8.643E+03  -1.174E+02
   6.918E+04   1.000E+00   0.000E+00   8.780E+03  -1.173E+02
   7.079E+04   1.000E+00   0.000E+00   8.920E+03  -1.172E+02
   7.244E+04   1.000E+00   0.000E+00   9.063E+03  -1.172E+02
   7.413E+04   1.000E+00   0.000E+00   9.209E+03  -1.171E+02
   7.586E+04   1.000E+00   0.000E+00   9.359E+03  -1.170E+02
   7.762E+04   1.000E+00   0.000E+00   9.512E+03  -1.169E+02
   7.943E+04   1.000E+00   0.000E+00   9.668E+03  -1.168E+02
   8.128E+04   1.000E+00   0.000E+00   9.827E+03  -1.168E+02
   8.318E+04   1.000E+00   0.000E+00   9.990E+03  -1.167E+02
   8.511E+04   1.000E+00   0.000E+00   1.016E+04  -1.166E+02
   8.710E+04   1.000E+00   0.000E+00   1.033E+04  -1.165E+02
   8.913E+04   1.000E+00   0.000E+00   1.050E+04  -1.165E+02
   9.120E+04   1.000E+00   0.000E+00   1.068E+04  -1.164E+02
   9.333E+04   1.000E+00   0.000E+00   1.086E+04  -1.163E+02
   9.550E+04   1.000E+00   0.000E+00   1.104E+04  -1.162E+02
   9.772E+04   1.000E+00   0.000E+00   1.123E+04  -1.162E+02
   1.000E+05   1.000E+00   0.000E+00   1.143E+04  -1.161E+02
   1.023E+05   1.000E+00   0.000E+00   1.162E+04  -1.161E+02
   1.047E+05   1.000E+00   0.000E+00   1.183E+04  -1.160E+02
   1.072E+05   1.000E+00   0.000E+00   1.203E+04  -1.160E+02
   1.096E+05   1.000E+00   0.000E+00   1.224E+04  -1.159E+02
   1.122E+05   1.000E+00   0.000E+00   1.245E+04  -1.159E+02
   1.148E+05   1.000E+00   0.000E+00   1.267E+04  -1.158E+02
   1.175E+05   1.000E+00   0.000E+00   1.290E+04  -1.158E+02
   1.202E+05   1.000E+00   0.000E+00   1.312E+04  -1.158E+02
   1.230E+05   1.000E+00   0.000E+00   1.335E+04  -1.158E+02
   1.259E+05   1.000E+00   0.000E+00   1.359E+04  -1.157E+02
   1.288E+05   1.000E+00   0.000E+00   1.383E+04  -1.157E+02
   1.318E+05   1.000E+00   0.000E+00   1.407E+04  -1.157E+02
   1.349E+05   1.000E+00   0.000E+00   1.432E+04  -1.157E+02
   1.380E+05   1.000E+00   0.000E+00   1.457E+04  -1.157E+02
   1.413E+05   1.000E+00   0.000E+00   1.483E+04  -1.157E+02
   1.445E+05   1.000E+00   0.000E+00   1.509E+04  -1.157E+02
   1.479E+05   1.000E+00   0.000E+00   1.536E+04  -1.158E+02
   1.514E+05   1.000E+00   0.000E+00   1.563E+04  -1.158E+02
   1.549E+05   1.000E+00   0.000E+00   1.590E+04  -1.158E+02
   1.585E+05   1.000E+00   0.000E+00   1.618E+04  -1.158E+02
   1.622E+05   1.000E+00   0.000E+00   1.647E+04  -1.159E+02
   1.660E+05   1.000E+00   0.000E+00   1.676E+04  -1.159E+02
   1.698E+05   1.000E+00   0.000E+00   1.705E+04  -1.160E+02
   1.738E+05   1.000E+00   0.000E+00   1.734E+04  -1.160E+02
   1.778E+05   1.000E+00   0.000E+00   1.764E+04  -1.161E+02
   1.820E+05   1.000E+00   0.000E+00   1.795E+04  -1.161E+02
   1.862E+05   1.000E+00   0.000E+00   1.826E+04  -1.162E+02
   1.905E+05   1.000E+00   0.000E+00   1.857E+04  -1.162E+02
   1.950E+05   1.000E+00   0.000E+00   1.889E+04  -1.163E+02
   1.995E+05   1.000E+00   0.000E+00   1.921E+04  -1.164E+02
   2.042E+05   1.000E+00   0.000E+00   1.953E+04  -1.164E+02
   2.089E+05   1.000E+00   0.000E+00   1.986E+04  -1.165E+02
   2.138E+05   1.000E+00   0.000E+00   2.020E+04  -1.166E+02
   2.188E+05   1.000E+00   0.000E+00   2.053E+04  -1.167E+02
   2.239E+05   1.000E+00   0.000E+00   2.087E+04  -1.167E+02
   2.291E+05   1.000E+00   0.000E+00   2.122E+04  -1.168E+02
   2.344E+05   1.000E+00   0.000E+00   2.157E+04  -1.169E+02
   2.399E+05   1.000E+00   0.000E+00   2.192E+04  -1.170E+02
   2.455E+05   1.000E+00   0.000E+00   2.227E+04  -1.171E+02
   2.512E+05   1.000E+00   0.000E+00   2.263E+04  -1.171E+02
   2.570E+05   1.000E+00   0.000E+00   2.300E+04  -1.172E+02
   2.630E+05   1.000E+00   0.000E+00   2.337E+04  -1.173E+02
   2.692E+05   1.000E+00   0.000E+00   2.374E+04  -1.174E+02
   2.754E+05   1.000E+00   0.000E+00   2.411E+04  -1.175E+02
   2.818E+05   1.000E+00   0.000E+00   2.449E+04  -1.175E+02
   2.884E+05   1.000E+00   0.000E+00   2.487E+04  -1.176E+02
   2.951E+05   1.000E+00   0.000E+00   2.526E+04  -1.177E+02
   3.020E+05   1.000E+00   0.000E+00   2.565E+04  -1.177E+02
   3.090E+05   1.000E+00   0.000E+00   2.604E+04  -1.178E+02
   3.162E+05   1.000E+00   0.000E+00   2.644E+04  -1.179E+02
   3.236E+05   1.000E+00   0.000E+00   2.685E+04  -1.179E+02
   3.311E+05   1.000E+00   0.000E+00   2.725E+04  -1.180E+02
   3.388E+05   1.000E+00   0.000E+00   2.767E+04  -1.180E+02
   3.467E+05   1.000E+00   0.000E+00   2.808E+04  -1.181E+02
   3.548E+05   1.000E+00   0.000E+00   2.850E+04  -1.181E+02
   3.631E+05   1.000E+00   0.000E+00   2.893E+04  -1.182E+02
   3.715E+05   1.000E+00   0.000E+00   2.936E+04  -1.182E+02
   3.802E+05   1.000E+00   0.000E+00   2.980E+04  -1.182E+02
   3.890E+05   1.000E+00   0.000E+00   3.024E+04  -1.183E+02
   3.981E+05   1.000E+00   0.000E+00   3.069E+04  -1.183E+02
   4.074E+05   1.000E+00   0.000E+00   3.115E+04  -1.183E+02
   4.169E+05   1.000E+00   0.000E+00   3.161E+04  -1.183E+02
   4.266E+05   1.000E+00   0.000E+00   3.207E+04  -1.183E+02
   4.365E+05   1.000E+00   0.000E+00   3.255E+04  -1.183E+02
   4.467E+05   1.000E+00   0.000E+00   3.303E+04  -1.183E+02
   4.571E+05   1.000E+00   0.000E+00   3.352E+04  -1.183E+02
   4.677E+05   1.000E+00   0.000E+00   3.401E+04  -1.183E+02
   4.786E+05   1.000E+00   0.000E+00   3.452E+04  -1.182E+02
   4.898E+05   1.000E+00   0.000E+00   3.503E+04  -1.182E+02
   5.012E+05   1.000E+00   0.000E+00   3.555E+04  -1.182E+02
   5.129E+05   1.000E+00   0.000E+00   3.609E+04  -1.182E+02
   5.248E+05   1.000E+00   0.000E+00   3.663E+04  -1.181E+02
   5.370E+05   1.000E+00   0.000E+00   3.718E+04  -1.181E+02
   5.495E+05   1.000E+00   0.000E+00   3.774E+04  -1.180E+02
   5.623E+05   1.000E+00   0.000E+00   3.831E+04  -1.180E+02
   5.754E+05   1.000E+00   0.000E+00   3.889E+04  -1.179E+02
   5.888E+05   1.000E+00   0.000E+00   3.949E+04  -1.178E+02
   6.026E+05   1.000E+00   0.000E+00   4.009E+04  -1.178E+02
   6.166E+05   1.000E+00   0.000E+00   4.071E+04  -1.177E+02
   6.310E+05   1.000E+00   0.000E+00   4.134E+04  -1.176E+02
   6.457E+05   1.000E+00   0.000E+00   4.199E+04  -1.176E+02
   6.607E+05   1.000E+00   0.000E+00   4.265E+04  -1.175E+02
   6.761E+05   1.000E+00   0.000E+00   4.332E+04  -1.174E+02
   6.918E+05   1.000E+00   0.000E+00   4.400E+04  -1.173E+02
   7.079E+05   1.000E+00   0.000E+00   4.470E+04  -1.173E+02
   7.244E+05   1.000E+00   0.000E+00   4.542E+04  -1.172E+02
   7.413E+05   1.000E+00   0.000E+00   4.615E+04  -1.171E+02
   7.586E+05   1.000E+00   0.000E+00   4.690E+04  -1.170E+02
   7.762E+05   1.000E+00   0.000E+00   4.766E+04  -1.169E+02
   7.943E+05   1.000E+00   0.000E+00   4.844E+04  -1.169E+02
   8.128E+05   1.000E+00   0.000E+00   4.924E+04  -1.168E+02
   8.318E+05   1.000E+00   0.000E+00   5.006E+04  -1.167E+02
   8.511E+05   1.000E+00   0.000E+00   5.089E+04  -1.166E+02
   8.710E+05   1.000E+00   0.000E+00   5.174E+04  -1.165E+02
   8.913E+05   1.000E+00   0.000E+00   5.261E+04  -1.165E+02
   9.120E+05   1.000E+00   0.000E+00   5.350E+04  -1.164E+02
   9.333E+05   1.000E+00   0.000E+00   5.441E+04  -1.163E+02
   9.550E+05   1.000E+00   0.000E+00   5.533E+04  -1.163E+02
   9.772E+05   1.000E+00   0.000E+00   5.628E+04  -1.162E+02
   1.000E+06   1.000E+00   0.000E+00   5.725E+04  -1.161E+02


          JOB CONCLUDED

**** 12/12/19 15:37:00 ******* PSpice Lite (March 2016) ******* ID# 10813 ****

 * Matlab created *.cir-file *


 ****     JOB STATISTICS SUMMARY


******************************************************************************



  Total job time (using Solver 1)   =        0.00
